Initialize SIGNATURE TABLE
ST_SET: 1
ST_WAY: 256
ST_TAG_BIT: 16
ST_TAG_MASK: ffff

Initialize PATTERN TABLE
PT_SET: 512
PT_WAY: 4
SIG_DELTA_BIT: 7
C_SIG_BIT: 4
C_DELTA_BIT: 4

Initialize PREFETCH FILTER
FILTER_SET: 1024

*** ChampSim Multicore Out-of-Order Simulator ***

Warmup Instructions: 50000000
Simulation Instructions: 50000000
Number of CPUs: 1
LLC sets: 2048
LLC ways: 16
Off-chip DRAM Size: 4096 MB Channels: 1 Width: 64-bit Data Rate: 3200 MT/s

CPU 0 runs /home/ChampSim-master//dpc3_traces/client_005.champsimtrace.xz
L1I D-JOLT instruction prefetcher has been constructed!
CPU 0 L1D next line prefetcher
Heartbeat CPU 0 instructions: 10000001 cycles: 3291739 heartbeat IPC: 3.03791 cumulative IPC: 3.03791 (Simulation time: 0 hr 2 min 53 sec) 
Heartbeat CPU 0 instructions: 20000002 cycles: 6699096 heartbeat IPC: 2.93483 cumulative IPC: 2.98548 (Simulation time: 0 hr 5 min 42 sec) 
Heartbeat CPU 0 instructions: 30000001 cycles: 10392406 heartbeat IPC: 2.7076 cumulative IPC: 2.88672 (Simulation time: 0 hr 8 min 41 sec) 
Heartbeat CPU 0 instructions: 40000000 cycles: 14070314 heartbeat IPC: 2.71894 cumulative IPC: 2.84286 (Simulation time: 0 hr 11 min 35 sec) 
Heartbeat CPU 0 instructions: 50000001 cycles: 17343722 heartbeat IPC: 3.05492 cumulative IPC: 2.88289 (Simulation time: 0 hr 14 min 4 sec) 

Warmup complete CPU 0 instructions: 50000001 cycles: 17343722 (Simulation time: 0 hr 14 min 4 sec) 

Heartbeat CPU 0 instructions: 60000002 cycles: 25334273 heartbeat IPC: 1.25148 cumulative IPC: 1.25148 (Simulation time: 0 hr 16 min 18 sec) 
Heartbeat CPU 0 instructions: 70000003 cycles: 32752150 heartbeat IPC: 1.34809 cumulative IPC: 1.29799 (Simulation time: 0 hr 18 min 36 sec) 
Heartbeat CPU 0 instructions: 80000001 cycles: 39627256 heartbeat IPC: 1.45452 cumulative IPC: 1.34629 (Simulation time: 0 hr 21 min 8 sec) 
Heartbeat CPU 0 instructions: 90000002 cycles: 49201160 heartbeat IPC: 1.04451 cumulative IPC: 1.25559 (Simulation time: 0 hr 23 min 33 sec) 
Heartbeat CPU 0 instructions: 100000002 cycles: 57014148 heartbeat IPC: 1.27992 cumulative IPC: 1.26038 (Simulation time: 0 hr 25 min 11 sec) 
Finished CPU 0 instructions: 50000001 cycles: 39670426 cumulative IPC: 1.26038 (Simulation time: 0 hr 25 min 11 sec) 

ChampSim completed all CPUs

Region of Interest Statistics

CPU 0 cumulative IPC: 1.26038 instructions: 50000001 cycles: 39670426
L1D TOTAL     ACCESS:   19646528  HIT:   19110753  MISS:     535775
L1D LOAD      ACCESS:    6653370  HIT:    6481713  MISS:     171657
L1D RFO       ACCESS:    6791607  HIT:    6607005  MISS:     184602
L1D PREFETCH  ACCESS:    6201551  HIT:    6022035  MISS:     179516
L1D WRITEBACK ACCESS:          0  HIT:          0  MISS:          0
L1D PREFETCH  REQUESTED:    6677219  ISSUED:    6307763  USEFUL:      59418  USELESS:     119986
L1D AVERAGE MISS LATENCY: 95.0671 cycles
L1I TOTAL     ACCESS:   18669656  HIT:   15916317  MISS:    2753339
L1I LOAD      ACCESS:    9381782  HIT:    9212800  MISS:     168982
L1I RFO       ACCESS:          0  HIT:          0  MISS:          0
L1I PREFETCH  ACCESS:    9287874  HIT:    6703517  MISS:    2584357
L1I WRITEBACK ACCESS:          0  HIT:          0  MISS:          0
L1I PREFETCH  REQUESTED:    9842045  ISSUED:    9604071  USEFUL:    1006187  USELESS:    1578099
L1I AVERAGE MISS LATENCY: 16.435 cycles
L2C TOTAL     ACCESS:    4608373  HIT:    4208301  MISS:     400072
L2C LOAD      ACCESS:     286170  HIT:     186143  MISS:     100027
L2C RFO       ACCESS:     180895  HIT:      31185  MISS:     149710
L2C PREFETCH  ACCESS:    3888239  HIT:    3739260  MISS:     148979
L2C WRITEBACK ACCESS:     253069  HIT:     251713  MISS:       1356
L2C PREFETCH  REQUESTED:    2071642  ISSUED:    2071473  USEFUL:      19756  USELESS:     128284
L2C AVERAGE MISS LATENCY: 124.756 cycles
LLC TOTAL     ACCESS:     950330  HIT:     651341  MISS:     298989
LLC LOAD      ACCESS:     100015  HIT:      52624  MISS:      47391
LLC RFO       ACCESS:     149708  HIT:      15529  MISS:     134179
LLC PREFETCH  ACCESS:     500314  HIT:     383754  MISS:     116560
LLC WRITEBACK ACCESS:     200293  HIT:     199434  MISS:        859
LLC PREFETCH  REQUESTED:          0  ISSUED:          0  USEFUL:      26246  USELESS:      89154
LLC AVERAGE MISS LATENCY: 166.903 cycles
Major fault: 0 Minor fault: 6090
CPU 0 L1D next line prefetcher final stats

DRAM Statistics
 CHANNEL 0
 RQ ROW_BUFFER_HIT:      94612  ROW_BUFFER_MISS:     203511
 DBUS_CONGESTED:     230923
 WQ ROW_BUFFER_HIT:      53612  ROW_BUFFER_MISS:     128955  FULL:          0

 AVG_CONGESTED_CYCLE: 6

CPU 0 Branch Prediction Accuracy: 97.8666% MPKI: 3.9013 Average ROB Occupancy at Mispredict: 86.6907

Branch types
NOT_BRANCH: 40856330 81.7127%
BRANCH_DIRECT_JUMP: 484667 0.969334%
BRANCH_INDIRECT: 85086 0.170172%
BRANCH_CONDITIONAL: 6230887 12.4618%
BRANCH_DIRECT_CALL: 1028917 2.05783%
BRANCH_INDIRECT_CALL: 141825 0.28365%
BRANCH_RETURN: 1171986 2.34397%
BRANCH_OTHER: 0 0%

