Initialize SIGNATURE TABLE
ST_SET: 1
ST_WAY: 256
ST_TAG_BIT: 16
ST_TAG_MASK: ffff

Initialize PATTERN TABLE
PT_SET: 512
PT_WAY: 4
SIG_DELTA_BIT: 7
C_SIG_BIT: 4
C_DELTA_BIT: 4

Initialize PREFETCH FILTER
FILTER_SET: 1024

*** ChampSim Multicore Out-of-Order Simulator ***

Warmup Instructions: 50000000
Simulation Instructions: 50000000
Number of CPUs: 1
LLC sets: 2048
LLC ways: 16
Off-chip DRAM Size: 4096 MB Channels: 1 Width: 64-bit Data Rate: 3200 MT/s

CPU 0 runs /home/ChampSim-master//dpc3_traces/client_006.champsimtrace.xz
L1I D-JOLT instruction prefetcher has been constructed!
CPU 0 L1D next line prefetcher
Heartbeat CPU 0 instructions: 10000003 cycles: 4267434 heartbeat IPC: 2.34333 cumulative IPC: 2.34333 (Simulation time: 0 hr 2 min 42 sec) 
Heartbeat CPU 0 instructions: 20000000 cycles: 8307682 heartbeat IPC: 2.47509 cumulative IPC: 2.40741 (Simulation time: 0 hr 5 min 57 sec) 
Heartbeat CPU 0 instructions: 30000003 cycles: 11371408 heartbeat IPC: 3.264 cumulative IPC: 2.6382 (Simulation time: 0 hr 8 min 35 sec) 
Heartbeat CPU 0 instructions: 40000000 cycles: 14717231 heartbeat IPC: 2.9888 cumulative IPC: 2.7179 (Simulation time: 0 hr 11 min 9 sec) 
Heartbeat CPU 0 instructions: 50000003 cycles: 18822107 heartbeat IPC: 2.43613 cumulative IPC: 2.65645 (Simulation time: 0 hr 13 min 47 sec) 

Warmup complete CPU 0 instructions: 50000003 cycles: 18822107 (Simulation time: 0 hr 13 min 47 sec) 

Heartbeat CPU 0 instructions: 60000001 cycles: 26675543 heartbeat IPC: 1.27333 cumulative IPC: 1.27333 (Simulation time: 0 hr 15 min 49 sec) 
Heartbeat CPU 0 instructions: 70000000 cycles: 36405108 heartbeat IPC: 1.0278 cumulative IPC: 1.13746 (Simulation time: 0 hr 17 min 52 sec) 
Heartbeat CPU 0 instructions: 80000002 cycles: 44725858 heartbeat IPC: 1.20182 cumulative IPC: 1.15813 (Simulation time: 0 hr 19 min 50 sec) 
Heartbeat CPU 0 instructions: 90000003 cycles: 52545924 heartbeat IPC: 1.27876 cumulative IPC: 1.18611 (Simulation time: 0 hr 21 min 25 sec) 
Heartbeat CPU 0 instructions: 100000001 cycles: 60699107 heartbeat IPC: 1.22651 cumulative IPC: 1.19397 (Simulation time: 0 hr 23 min 6 sec) 
Finished CPU 0 instructions: 50000002 cycles: 41877001 cumulative IPC: 1.19397 (Simulation time: 0 hr 23 min 6 sec) 

ChampSim completed all CPUs

Region of Interest Statistics

CPU 0 cumulative IPC: 1.19397 instructions: 50000002 cycles: 41877001
L1D TOTAL     ACCESS:   16592190  HIT:   15865032  MISS:     727158
L1D LOAD      ACCESS:    6365288  HIT:    5958917  MISS:     406371
L1D RFO       ACCESS:    4332343  HIT:    4289740  MISS:      42603
L1D PREFETCH  ACCESS:    5894559  HIT:    5616375  MISS:     278184
L1D WRITEBACK ACCESS:          0  HIT:          0  MISS:          0
L1D PREFETCH  REQUESTED:    6406673  ISSUED:    6225771  USEFUL:     117169  USELESS:     160890
L1D AVERAGE MISS LATENCY: 81.7299 cycles
L1I TOTAL     ACCESS:   13205010  HIT:   11955347  MISS:    1249663
L1I LOAD      ACCESS:    8476480  HIT:    8459474  MISS:      17006
L1I RFO       ACCESS:          0  HIT:          0  MISS:          0
L1I PREFETCH  ACCESS:    4728530  HIT:    3495873  MISS:    1232657
L1I WRITEBACK ACCESS:          0  HIT:          0  MISS:          0
L1I PREFETCH  REQUESTED:    4927120  ISSUED:    4823475  USEFUL:     835418  USELESS:     397133
L1I AVERAGE MISS LATENCY: 21.5495 cycles
L2C TOTAL     ACCESS:    2837237  HIT:    2283676  MISS:     553561
L2C LOAD      ACCESS:     354860  HIT:     114233  MISS:     240627
L2C RFO       ACCESS:      42335  HIT:      12169  MISS:      30166
L2C PREFETCH  ACCESS:    2264086  HIT:    1982086  MISS:     282000
L2C WRITEBACK ACCESS:     175956  HIT:     175188  MISS:        768
L2C PREFETCH  REQUESTED:    3002905  ISSUED:    2975870  USEFUL:      12157  USELESS:     270444
L2C AVERAGE MISS LATENCY: 114.612 cycles
LLC TOTAL     ACCESS:    1425082  HIT:    1036483  MISS:     388599
LLC LOAD      ACCESS:     230780  HIT:     136748  MISS:      94032
LLC RFO       ACCESS:      30166  HIT:       5373  MISS:      24793
LLC PREFETCH  ACCESS:    1029380  HIT:     760164  MISS:     269216
LLC WRITEBACK ACCESS:     134756  HIT:     134198  MISS:        558
LLC PREFETCH  REQUESTED:          0  ISSUED:          0  USEFUL:      43853  USELESS:     229236
LLC AVERAGE MISS LATENCY: 198.365 cycles
Major fault: 0 Minor fault: 10537
CPU 0 L1D next line prefetcher final stats

DRAM Statistics
 CHANNEL 0
 RQ ROW_BUFFER_HIT:      99280  ROW_BUFFER_MISS:     288741
 DBUS_CONGESTED:     225994
 WQ ROW_BUFFER_HIT:      21523  ROW_BUFFER_MISS:      93211  FULL:          0

 AVG_CONGESTED_CYCLE: 5

CPU 0 Branch Prediction Accuracy: 98.1683% MPKI: 3.13642 Average ROB Occupancy at Mispredict: 86.9312

Branch types
NOT_BRANCH: 41438063 82.8761%
BRANCH_DIRECT_JUMP: 413829 0.827658%
BRANCH_INDIRECT: 47058 0.094116%
BRANCH_CONDITIONAL: 6843835 13.6877%
BRANCH_DIRECT_CALL: 536885 1.07377%
BRANCH_INDIRECT_CALL: 90642 0.181284%
BRANCH_RETURN: 629329 1.25866%
BRANCH_OTHER: 0 0%

