Initialize SIGNATURE TABLE
ST_SET: 1
ST_WAY: 256
ST_TAG_BIT: 16
ST_TAG_MASK: ffff

Initialize PATTERN TABLE
PT_SET: 512
PT_WAY: 4
SIG_DELTA_BIT: 7
C_SIG_BIT: 4
C_DELTA_BIT: 4

Initialize PREFETCH FILTER
FILTER_SET: 1024

*** ChampSim Multicore Out-of-Order Simulator ***

Warmup Instructions: 50000000
Simulation Instructions: 50000000
Number of CPUs: 1
LLC sets: 2048
LLC ways: 16
Off-chip DRAM Size: 4096 MB Channels: 1 Width: 64-bit Data Rate: 3200 MT/s

CPU 0 runs /home/ChampSim-master//dpc3_traces/client_001.champsimtrace.xz
CPU 0 EPI prefetcher
CPU 0 L1D next line prefetcher
Heartbeat CPU 0 instructions: 10000003 cycles: 3410223 heartbeat IPC: 2.93236 cumulative IPC: 2.93236 (Simulation time: 0 hr 2 min 37 sec) 
Heartbeat CPU 0 instructions: 20000001 cycles: 7118472 heartbeat IPC: 2.69669 cumulative IPC: 2.80959 (Simulation time: 0 hr 5 min 19 sec) 
Heartbeat CPU 0 instructions: 30000001 cycles: 10480869 heartbeat IPC: 2.97407 cumulative IPC: 2.86236 (Simulation time: 0 hr 7 min 54 sec) 
Heartbeat CPU 0 instructions: 40000003 cycles: 14350255 heartbeat IPC: 2.58439 cumulative IPC: 2.78741 (Simulation time: 0 hr 10 min 35 sec) 
Heartbeat CPU 0 instructions: 50000003 cycles: 17646837 heartbeat IPC: 3.03344 cumulative IPC: 2.83337 (Simulation time: 0 hr 13 min 11 sec) 

Warmup complete CPU 0 instructions: 50000003 cycles: 17646837 (Simulation time: 0 hr 13 min 11 sec) 

Heartbeat CPU 0 instructions: 60000000 cycles: 26728760 heartbeat IPC: 1.10109 cumulative IPC: 1.10109 (Simulation time: 0 hr 15 min 43 sec) 
Heartbeat CPU 0 instructions: 70000000 cycles: 33183438 heartbeat IPC: 1.54926 cumulative IPC: 1.28728 (Simulation time: 0 hr 17 min 55 sec) 
Heartbeat CPU 0 instructions: 80000002 cycles: 42525223 heartbeat IPC: 1.07046 cumulative IPC: 1.20587 (Simulation time: 0 hr 20 min 37 sec) 
Heartbeat CPU 0 instructions: 90000000 cycles: 48829680 heartbeat IPC: 1.58618 cumulative IPC: 1.28276 (Simulation time: 0 hr 22 min 39 sec) 
Heartbeat CPU 0 instructions: 100000002 cycles: 57652386 heartbeat IPC: 1.13344 cumulative IPC: 1.24983 (Simulation time: 0 hr 24 min 43 sec) 
Finished CPU 0 instructions: 50000003 cycles: 40005550 cumulative IPC: 1.24983 (Simulation time: 0 hr 24 min 43 sec) 

ChampSim completed all CPUs

Region of Interest Statistics

CPU 0 cumulative IPC: 1.24983 instructions: 50000003 cycles: 40005550
L1D TOTAL     ACCESS:   21282605  HIT:   20446087  MISS:     836518
L1D LOAD      ACCESS:    8840791  HIT:    8447376  MISS:     393415
L1D RFO       ACCESS:    4042463  HIT:    3983470  MISS:      58993
L1D PREFETCH  ACCESS:    8399351  HIT:    8015241  MISS:     384110
L1D WRITEBACK ACCESS:          0  HIT:          0  MISS:          0
L1D PREFETCH  REQUESTED:    8886172  ISSUED:    8576837  USEFUL:     131028  USELESS:     253056
L1D AVERAGE MISS LATENCY: 47.0023 cycles
L1I TOTAL     ACCESS:   25607676  HIT:   25290340  MISS:     317336
L1I LOAD      ACCESS:    8905168  HIT:    8843417  MISS:      61751
L1I RFO       ACCESS:          0  HIT:          0  MISS:          0
L1I PREFETCH  ACCESS:   16702508  HIT:   16446923  MISS:     255585
L1I WRITEBACK ACCESS:          0  HIT:          0  MISS:          0
L1I PREFETCH  REQUESTED:   18778982  ISSUED:   18778982  USEFUL:     217693  USELESS:      37859
L1I AVERAGE MISS LATENCY: 22.645 cycles
L2C TOTAL     ACCESS:    1851216  HIT:    1547534  MISS:     303682
L2C LOAD      ACCESS:     429295  HIT:     315208  MISS:     114087
L2C RFO       ACCESS:      58232  HIT:      21563  MISS:      36669
L2C PREFETCH  ACCESS:    1174073  HIT:    1021368  MISS:     152705
L2C WRITEBACK ACCESS:     189616  HIT:     189395  MISS:        221
L2C PREFETCH  REQUESTED:    1542571  ISSUED:    1538846  USEFUL:      14238  USELESS:     137615
L2C AVERAGE MISS LATENCY: 103.212 cycles
LLC TOTAL     ACCESS:     811257  HIT:     616146  MISS:     195111
LLC LOAD      ACCESS:     113733  HIT:      72498  MISS:      41235
LLC RFO       ACCESS:      36669  HIT:       8581  MISS:      28088
LLC PREFETCH  ACCESS:     555006  HIT:     429893  MISS:     125113
LLC WRITEBACK ACCESS:     105849  HIT:     105174  MISS:        675
LLC PREFETCH  REQUESTED:          0  ISSUED:          0  USEFUL:      29317  USELESS:      98024
LLC AVERAGE MISS LATENCY: 186.34 cycles
Major fault: 0 Minor fault: 3433
CPU 0 L1I EPI prefetcher final stats
CPU 0 L1D next line prefetcher final stats

DRAM Statistics
 CHANNEL 0
 RQ ROW_BUFFER_HIT:      47783  ROW_BUFFER_MISS:     146645
 DBUS_CONGESTED:     116587
 WQ ROW_BUFFER_HIT:      15610  ROW_BUFFER_MISS:      64831  FULL:          0

 AVG_CONGESTED_CYCLE: 5

CPU 0 Branch Prediction Accuracy: 97.9037% MPKI: 3.63418 Average ROB Occupancy at Mispredict: 85.5424

Branch types
NOT_BRANCH: 41331383 82.6628%
BRANCH_DIRECT_JUMP: 455615 0.91123%
BRANCH_INDIRECT: 20390 0.04078%
BRANCH_CONDITIONAL: 6745374 13.4907%
BRANCH_DIRECT_CALL: 494532 0.989064%
BRANCH_INDIRECT_CALL: 228815 0.45763%
BRANCH_RETURN: 723560 1.44712%
BRANCH_OTHER: 0 0%

