Initialize SIGNATURE TABLE
ST_SET: 1
ST_WAY: 256
ST_TAG_BIT: 16
ST_TAG_MASK: ffff

Initialize PATTERN TABLE
PT_SET: 512
PT_WAY: 4
SIG_DELTA_BIT: 7
C_SIG_BIT: 4
C_DELTA_BIT: 4

Initialize PREFETCH FILTER
FILTER_SET: 1024

*** ChampSim Multicore Out-of-Order Simulator ***

Warmup Instructions: 50000000
Simulation Instructions: 50000000
Number of CPUs: 1
LLC sets: 2048
LLC ways: 16
Off-chip DRAM Size: 4096 MB Channels: 1 Width: 64-bit Data Rate: 3200 MT/s

CPU 0 runs /home/ChampSim-master//dpc3_traces/client_005.champsimtrace.xz
CPU 0 EPI prefetcher
CPU 0 L1D next line prefetcher
Heartbeat CPU 0 instructions: 10000001 cycles: 3292169 heartbeat IPC: 3.03751 cumulative IPC: 3.03751 (Simulation time: 0 hr 3 min 1 sec) 
Heartbeat CPU 0 instructions: 20000002 cycles: 6698533 heartbeat IPC: 2.93568 cumulative IPC: 2.98573 (Simulation time: 0 hr 6 min 43 sec) 
Heartbeat CPU 0 instructions: 30000001 cycles: 10391968 heartbeat IPC: 2.70751 cumulative IPC: 2.88685 (Simulation time: 0 hr 10 min 39 sec) 
Heartbeat CPU 0 instructions: 40000000 cycles: 14069959 heartbeat IPC: 2.71888 cumulative IPC: 2.84294 (Simulation time: 0 hr 14 min 34 sec) 
Heartbeat CPU 0 instructions: 50000001 cycles: 17344070 heartbeat IPC: 3.05426 cumulative IPC: 2.88283 (Simulation time: 0 hr 17 min 45 sec) 

Warmup complete CPU 0 instructions: 50000001 cycles: 17344070 (Simulation time: 0 hr 17 min 45 sec) 

Heartbeat CPU 0 instructions: 60000002 cycles: 24762267 heartbeat IPC: 1.34804 cumulative IPC: 1.34804 (Simulation time: 0 hr 20 min 33 sec) 
Heartbeat CPU 0 instructions: 70000003 cycles: 31908557 heartbeat IPC: 1.39933 cumulative IPC: 1.3732 (Simulation time: 0 hr 23 min 30 sec) 
Heartbeat CPU 0 instructions: 80000001 cycles: 38724994 heartbeat IPC: 1.46704 cumulative IPC: 1.40312 (Simulation time: 0 hr 26 min 37 sec) 
Heartbeat CPU 0 instructions: 90000002 cycles: 48162657 heartbeat IPC: 1.05958 cumulative IPC: 1.29792 (Simulation time: 0 hr 29 min 14 sec) 
Heartbeat CPU 0 instructions: 100000002 cycles: 55543537 heartbeat IPC: 1.35485 cumulative IPC: 1.30892 (Simulation time: 0 hr 30 min 38 sec) 
Finished CPU 0 instructions: 50000001 cycles: 38199467 cumulative IPC: 1.30892 (Simulation time: 0 hr 30 min 38 sec) 

ChampSim completed all CPUs

Region of Interest Statistics

CPU 0 cumulative IPC: 1.30892 instructions: 50000001 cycles: 38199467
L1D TOTAL     ACCESS:   19585573  HIT:   19049865  MISS:     535708
L1D LOAD      ACCESS:    6621263  HIT:    6449530  MISS:     171733
L1D RFO       ACCESS:    6792689  HIT:    6608123  MISS:     184566
L1D PREFETCH  ACCESS:    6171621  HIT:    5992212  MISS:     179409
L1D WRITEBACK ACCESS:          0  HIT:          0  MISS:          0
L1D PREFETCH  REQUESTED:    6644635  ISSUED:    6275814  USEFUL:      59359  USELESS:     119939
L1D AVERAGE MISS LATENCY: 93.1958 cycles
L1I TOTAL     ACCESS:   40043114  HIT:   38615212  MISS:    1427902
L1I LOAD      ACCESS:    9311648  HIT:    9225007  MISS:      86641
L1I RFO       ACCESS:          0  HIT:          0  MISS:          0
L1I PREFETCH  ACCESS:   30731466  HIT:   29390205  MISS:    1341261
L1I WRITEBACK ACCESS:          0  HIT:          0  MISS:          0
L1I PREFETCH  REQUESTED:   40394284  ISSUED:   40394284  USEFUL:     773757  USELESS:     567430
L1I AVERAGE MISS LATENCY: 19.8887 cycles
L2C TOTAL     ACCESS:    2922052  HIT:    2519881  MISS:     402171
L2C LOAD      ACCESS:     223936  HIT:     142595  MISS:      81341
L2C RFO       ACCESS:     180975  HIT:      31567  MISS:     149408
L2C PREFETCH  ACCESS:    2264100  HIT:    2094193  MISS:     169907
L2C WRITEBACK ACCESS:     253041  HIT:     251526  MISS:       1515
L2C PREFETCH  REQUESTED:    2100065  ISSUED:    2098978  USEFUL:      14342  USELESS:     153173
L2C AVERAGE MISS LATENCY: 126.25 cycles
LLC TOTAL     ACCESS:     991600  HIT:     689295  MISS:     302305
LLC LOAD      ACCESS:      81314  HIT:      41117  MISS:      40197
LLC RFO       ACCESS:     149404  HIT:      19174  MISS:     130230
LLC PREFETCH  ACCESS:     561281  HIT:     430322  MISS:     130959
LLC WRITEBACK ACCESS:     199601  HIT:     198682  MISS:        919
LLC PREFETCH  REQUESTED:          0  ISSUED:          0  USEFUL:      27496  USELESS:      98052
LLC AVERAGE MISS LATENCY: 173.439 cycles
Major fault: 0 Minor fault: 6090
CPU 0 L1I EPI prefetcher final stats
CPU 0 L1D next line prefetcher final stats

DRAM Statistics
 CHANNEL 0
 RQ ROW_BUFFER_HIT:      98476  ROW_BUFFER_MISS:     202900
 DBUS_CONGESTED:     243644
 WQ ROW_BUFFER_HIT:      51795  ROW_BUFFER_MISS:     131425  FULL:          0

 AVG_CONGESTED_CYCLE: 6

CPU 0 Branch Prediction Accuracy: 97.8666% MPKI: 3.9013 Average ROB Occupancy at Mispredict: 92.2093

Branch types
NOT_BRANCH: 40856330 81.7127%
BRANCH_DIRECT_JUMP: 484667 0.969334%
BRANCH_INDIRECT: 85086 0.170172%
BRANCH_CONDITIONAL: 6230887 12.4618%
BRANCH_DIRECT_CALL: 1028917 2.05783%
BRANCH_INDIRECT_CALL: 141825 0.28365%
BRANCH_RETURN: 1171986 2.34397%
BRANCH_OTHER: 0 0%

