Initialize SIGNATURE TABLE
ST_SET: 1
ST_WAY: 256
ST_TAG_BIT: 16
ST_TAG_MASK: ffff

Initialize PATTERN TABLE
PT_SET: 512
PT_WAY: 4
SIG_DELTA_BIT: 7
C_SIG_BIT: 4
C_DELTA_BIT: 4

Initialize PREFETCH FILTER
FILTER_SET: 1024

*** ChampSim Multicore Out-of-Order Simulator ***

Warmup Instructions: 50000000
Simulation Instructions: 50000000
Number of CPUs: 1
LLC sets: 2048
LLC ways: 16
Off-chip DRAM Size: 4096 MB Channels: 1 Width: 64-bit Data Rate: 3200 MT/s

CPU 0 runs /home/ChampSim-master//dpc3_traces/client_007.champsimtrace.xz
L1I D-JOLT instruction prefetcher has been constructed!
CPU 0 L1D next line prefetcher
Heartbeat CPU 0 instructions: 10000001 cycles: 3642149 heartbeat IPC: 2.74563 cumulative IPC: 2.74563 (Simulation time: 0 hr 2 min 42 sec) 
Heartbeat CPU 0 instructions: 20000003 cycles: 7034403 heartbeat IPC: 2.94789 cumulative IPC: 2.84317 (Simulation time: 0 hr 5 min 9 sec) 
Heartbeat CPU 0 instructions: 30000000 cycles: 10907027 heartbeat IPC: 2.58223 cumulative IPC: 2.75052 (Simulation time: 0 hr 8 min 3 sec) 
Heartbeat CPU 0 instructions: 40000003 cycles: 15066992 heartbeat IPC: 2.40387 cumulative IPC: 2.65481 (Simulation time: 0 hr 10 min 57 sec) 
Heartbeat CPU 0 instructions: 50000002 cycles: 18472505 heartbeat IPC: 2.93641 cumulative IPC: 2.70673 (Simulation time: 0 hr 13 min 37 sec) 

Warmup complete CPU 0 instructions: 50000002 cycles: 18472505 (Simulation time: 0 hr 13 min 37 sec) 

Heartbeat CPU 0 instructions: 60000003 cycles: 25368298 heartbeat IPC: 1.45016 cumulative IPC: 1.45016 (Simulation time: 0 hr 16 min 44 sec) 
Heartbeat CPU 0 instructions: 70000003 cycles: 34235857 heartbeat IPC: 1.12771 cumulative IPC: 1.26877 (Simulation time: 0 hr 20 min 20 sec) 
Heartbeat CPU 0 instructions: 80000002 cycles: 39557811 heartbeat IPC: 1.87901 cumulative IPC: 1.42279 (Simulation time: 0 hr 22 min 23 sec) 
Heartbeat CPU 0 instructions: 90000002 cycles: 47173138 heartbeat IPC: 1.31314 cumulative IPC: 1.3937 (Simulation time: 0 hr 24 min 58 sec) 
Heartbeat CPU 0 instructions: 100000002 cycles: 56103257 heartbeat IPC: 1.11981 cumulative IPC: 1.3287 (Simulation time: 0 hr 26 min 43 sec) 
Finished CPU 0 instructions: 50000000 cycles: 37630752 cumulative IPC: 1.3287 (Simulation time: 0 hr 26 min 43 sec) 

ChampSim completed all CPUs

Region of Interest Statistics

CPU 0 cumulative IPC: 1.3287 instructions: 50000000 cycles: 37630752
L1D TOTAL     ACCESS:   21192834  HIT:   20023787  MISS:    1169047
L1D LOAD      ACCESS:    8367669  HIT:    7828113  MISS:     539556
L1D RFO       ACCESS:    4868333  HIT:    4777269  MISS:      91064
L1D PREFETCH  ACCESS:    7956832  HIT:    7418405  MISS:     538427
L1D WRITEBACK ACCESS:          0  HIT:          0  MISS:          0
L1D PREFETCH  REQUESTED:    8419485  ISSUED:    8175665  USEFUL:     157997  USELESS:     380446
L1D AVERAGE MISS LATENCY: 34.6193 cycles
L1I TOTAL     ACCESS:   13270684  HIT:   12081419  MISS:    1189265
L1I LOAD      ACCESS:    9117761  HIT:    9070641  MISS:      47120
L1I RFO       ACCESS:          0  HIT:          0  MISS:          0
L1I PREFETCH  ACCESS:    4152923  HIT:    3010778  MISS:    1142145
L1I WRITEBACK ACCESS:          0  HIT:          0  MISS:          0
L1I PREFETCH  REQUESTED:    4315349  ISSUED:    4239166  USEFUL:     858883  USELESS:     283322
L1I AVERAGE MISS LATENCY: 16.5443 cycles
L2C TOTAL     ACCESS:    3506585  HIT:    3297842  MISS:     208743
L2C LOAD      ACCESS:     557565  HIT:     487624  MISS:      69941
L2C RFO       ACCESS:      89447  HIT:      47400  MISS:      42047
L2C PREFETCH  ACCESS:    2531912  HIT:    2435273  MISS:      96639
L2C WRITEBACK ACCESS:     327661  HIT:     327545  MISS:        116
L2C PREFETCH  REQUESTED:    2522931  ISSUED:    2515552  USEFUL:       9965  USELESS:      86639
L2C AVERAGE MISS LATENCY: 124.766 cycles
LLC TOTAL     ACCESS:     934775  HIT:     765955  MISS:     168820
LLC LOAD      ACCESS:      69854  HIT:      34467  MISS:      35387
LLC RFO       ACCESS:      42047  HIT:       7555  MISS:      34492
LLC PREFETCH  ACCESS:     747943  HIT:     649307  MISS:      98636
LLC WRITEBACK ACCESS:      74931  HIT:      74626  MISS:        305
LLC PREFETCH  REQUESTED:          0  ISSUED:          0  USEFUL:      18572  USELESS:      81316
LLC AVERAGE MISS LATENCY: 182.914 cycles
Major fault: 0 Minor fault: 4413
CPU 0 L1D next line prefetcher final stats

DRAM Statistics
 CHANNEL 0
 RQ ROW_BUFFER_HIT:      35460  ROW_BUFFER_MISS:     133047
 DBUS_CONGESTED:      93519
 WQ ROW_BUFFER_HIT:      12545  ROW_BUFFER_MISS:      45627  FULL:          0

 AVG_CONGESTED_CYCLE: 5

CPU 0 Branch Prediction Accuracy: 98.8607% MPKI: 1.8623 Average ROB Occupancy at Mispredict: 113.363

Branch types
NOT_BRANCH: 41826773 83.6535%
BRANCH_DIRECT_JUMP: 735330 1.47066%
BRANCH_INDIRECT: 269194 0.538388%
BRANCH_CONDITIONAL: 5957947 11.9159%
BRANCH_DIRECT_CALL: 368758 0.737516%
BRANCH_INDIRECT_CALL: 226975 0.45395%
BRANCH_RETURN: 614696 1.22939%
BRANCH_OTHER: 0 0%

