Initialize SIGNATURE TABLE
ST_SET: 1
ST_WAY: 256
ST_TAG_BIT: 16
ST_TAG_MASK: ffff

Initialize PATTERN TABLE
PT_SET: 512
PT_WAY: 4
SIG_DELTA_BIT: 7
C_SIG_BIT: 4
C_DELTA_BIT: 4

Initialize PREFETCH FILTER
FILTER_SET: 1024

*** ChampSim Multicore Out-of-Order Simulator ***

Warmup Instructions: 50000000
Simulation Instructions: 50000000
Number of CPUs: 1
LLC sets: 2048
LLC ways: 16
Off-chip DRAM Size: 4096 MB Channels: 1 Width: 64-bit Data Rate: 3200 MT/s

CPU 0 runs /home/ChampSim-master//dpc3_traces/client_005.champsimtrace.xz
L1I D-JOLT instruction prefetcher has been constructed!
CPU 0 L1D next line prefetcher
Heartbeat CPU 0 instructions: 10000001 cycles: 3291687 heartbeat IPC: 3.03796 cumulative IPC: 3.03796 (Simulation time: 0 hr 2 min 49 sec) 
Heartbeat CPU 0 instructions: 20000002 cycles: 6700012 heartbeat IPC: 2.93399 cumulative IPC: 2.98507 (Simulation time: 0 hr 6 min 1 sec) 
Heartbeat CPU 0 instructions: 30000001 cycles: 10393332 heartbeat IPC: 2.70759 cumulative IPC: 2.88647 (Simulation time: 0 hr 9 min 10 sec) 
Heartbeat CPU 0 instructions: 40000000 cycles: 14071292 heartbeat IPC: 2.7189 cumulative IPC: 2.84267 (Simulation time: 0 hr 12 min 26 sec) 
Heartbeat CPU 0 instructions: 50000001 cycles: 17344875 heartbeat IPC: 3.05476 cumulative IPC: 2.8827 (Simulation time: 0 hr 15 min 7 sec) 

Warmup complete CPU 0 instructions: 50000001 cycles: 17344875 (Simulation time: 0 hr 15 min 7 sec) 

Heartbeat CPU 0 instructions: 60000002 cycles: 25354361 heartbeat IPC: 1.24852 cumulative IPC: 1.24852 (Simulation time: 0 hr 17 min 30 sec) 
Heartbeat CPU 0 instructions: 70000003 cycles: 32778632 heartbeat IPC: 1.34693 cumulative IPC: 1.29586 (Simulation time: 0 hr 20 min 9 sec) 
Heartbeat CPU 0 instructions: 80000001 cycles: 39648801 heartbeat IPC: 1.45557 cumulative IPC: 1.34505 (Simulation time: 0 hr 22 min 49 sec) 
Heartbeat CPU 0 instructions: 90000002 cycles: 49212396 heartbeat IPC: 1.04563 cumulative IPC: 1.2552 (Simulation time: 0 hr 25 min 2 sec) 
Heartbeat CPU 0 instructions: 100000002 cycles: 57015585 heartbeat IPC: 1.28153 cumulative IPC: 1.26038 (Simulation time: 0 hr 26 min 11 sec) 
Finished CPU 0 instructions: 50000001 cycles: 39670710 cumulative IPC: 1.26038 (Simulation time: 0 hr 26 min 11 sec) 

ChampSim completed all CPUs

Region of Interest Statistics

CPU 0 cumulative IPC: 1.26038 instructions: 50000001 cycles: 39670710
L1D TOTAL     ACCESS:   19655384  HIT:   19119643  MISS:     535741
L1D LOAD      ACCESS:    6658497  HIT:    6486746  MISS:     171751
L1D RFO       ACCESS:    6791253  HIT:    6606616  MISS:     184637
L1D PREFETCH  ACCESS:    6205634  HIT:    6026281  MISS:     179353
L1D WRITEBACK ACCESS:          0  HIT:          0  MISS:          0
L1D PREFETCH  REQUESTED:    6682393  ISSUED:    6312040  USEFUL:      59293  USELESS:     119949
L1D AVERAGE MISS LATENCY: 94.9325 cycles
L1I TOTAL     ACCESS:   18821498  HIT:   15790842  MISS:    3030656
L1I LOAD      ACCESS:    9391262  HIT:    9226897  MISS:     164365
L1I RFO       ACCESS:          0  HIT:          0  MISS:          0
L1I PREFETCH  ACCESS:    9430236  HIT:    6563945  MISS:    2866291
L1I WRITEBACK ACCESS:          0  HIT:          0  MISS:          0
L1I PREFETCH  REQUESTED:   10158479  ISSUED:    9664341  USEFUL:    1074099  USELESS:    1792139
L1I AVERAGE MISS LATENCY: 16.4646 cycles
L2C TOTAL     ACCESS:    5025536  HIT:    4624559  MISS:     400977
L2C LOAD      ACCESS:     303343  HIT:     203282  MISS:     100061
L2C RFO       ACCESS:     180869  HIT:      31000  MISS:     149869
L2C PREFETCH  ACCESS:    4288266  HIT:    4138580  MISS:     149686
L2C WRITEBACK ACCESS:     253058  HIT:     251697  MISS:       1361
L2C PREFETCH  REQUESTED:    2350429  ISSUED:    2350265  USEFUL:      20387  USELESS:     128349
L2C AVERAGE MISS LATENCY: 124.641 cycles
LLC TOTAL     ACCESS:     983939  HIT:     683409  MISS:     300530
LLC LOAD      ACCESS:     100037  HIT:      52723  MISS:      47314
LLC RFO       ACCESS:     149869  HIT:      16200  MISS:     133669
LLC PREFETCH  ACCESS:     533552  HIT:     414855  MISS:     118697
LLC WRITEBACK ACCESS:     200481  HIT:     199631  MISS:        850
LLC PREFETCH  REQUESTED:          0  ISSUED:          0  USEFUL:      26797  USELESS:      90279
LLC AVERAGE MISS LATENCY: 167.157 cycles
Major fault: 0 Minor fault: 6090
CPU 0 L1D next line prefetcher final stats

DRAM Statistics
 CHANNEL 0
 RQ ROW_BUFFER_HIT:      94893  ROW_BUFFER_MISS:     204778
 DBUS_CONGESTED:     232420
 WQ ROW_BUFFER_HIT:      54039  ROW_BUFFER_MISS:     128787  FULL:          0

 AVG_CONGESTED_CYCLE: 6

CPU 0 Branch Prediction Accuracy: 97.8666% MPKI: 3.9013 Average ROB Occupancy at Mispredict: 86.0943

Branch types
NOT_BRANCH: 40856327 81.7127%
BRANCH_DIRECT_JUMP: 484667 0.969334%
BRANCH_INDIRECT: 85086 0.170172%
BRANCH_CONDITIONAL: 6230887 12.4618%
BRANCH_DIRECT_CALL: 1028917 2.05783%
BRANCH_INDIRECT_CALL: 141825 0.28365%
BRANCH_RETURN: 1171985 2.34397%
BRANCH_OTHER: 0 0%

