Initialize SIGNATURE TABLE
ST_SET: 1
ST_WAY: 256
ST_TAG_BIT: 16
ST_TAG_MASK: ffff

Initialize PATTERN TABLE
PT_SET: 512
PT_WAY: 4
SIG_DELTA_BIT: 7
C_SIG_BIT: 4
C_DELTA_BIT: 4

Initialize PREFETCH FILTER
FILTER_SET: 1024

*** ChampSim Multicore Out-of-Order Simulator ***

Warmup Instructions: 50000000
Simulation Instructions: 50000000
Number of CPUs: 1
LLC sets: 2048
LLC ways: 16
Off-chip DRAM Size: 4096 MB Channels: 1 Width: 64-bit Data Rate: 3200 MT/s

CPU 0 runs /home/ChampSim-master//dpc3_traces/client_005.champsimtrace.xz
L1I D-JOLT instruction prefetcher has been constructed!
CPU 0 L1D next line prefetcher
Heartbeat CPU 0 instructions: 10000001 cycles: 3291833 heartbeat IPC: 3.03782 cumulative IPC: 3.03782 (Simulation time: 0 hr 2 min 50 sec) 
Heartbeat CPU 0 instructions: 20000002 cycles: 6698480 heartbeat IPC: 2.93544 cumulative IPC: 2.98575 (Simulation time: 0 hr 5 min 44 sec) 
Heartbeat CPU 0 instructions: 30000001 cycles: 10391802 heartbeat IPC: 2.70759 cumulative IPC: 2.88689 (Simulation time: 0 hr 8 min 59 sec) 
Heartbeat CPU 0 instructions: 40000000 cycles: 14069702 heartbeat IPC: 2.71894 cumulative IPC: 2.84299 (Simulation time: 0 hr 12 min 22 sec) 
Heartbeat CPU 0 instructions: 50000001 cycles: 17343357 heartbeat IPC: 3.05469 cumulative IPC: 2.88295 (Simulation time: 0 hr 15 min 24 sec) 

Warmup complete CPU 0 instructions: 50000001 cycles: 17343357 (Simulation time: 0 hr 15 min 24 sec) 

Heartbeat CPU 0 instructions: 60000002 cycles: 25300241 heartbeat IPC: 1.25677 cumulative IPC: 1.25677 (Simulation time: 0 hr 17 min 44 sec) 
Heartbeat CPU 0 instructions: 70000003 cycles: 32701122 heartbeat IPC: 1.35119 cumulative IPC: 1.30227 (Simulation time: 0 hr 20 min 15 sec) 
Heartbeat CPU 0 instructions: 80000001 cycles: 39568009 heartbeat IPC: 1.45626 cumulative IPC: 1.34985 (Simulation time: 0 hr 22 min 58 sec) 
Heartbeat CPU 0 instructions: 90000002 cycles: 49107412 heartbeat IPC: 1.04828 cumulative IPC: 1.25929 (Simulation time: 0 hr 25 min 21 sec) 
Heartbeat CPU 0 instructions: 100000002 cycles: 56920623 heartbeat IPC: 1.27988 cumulative IPC: 1.26335 (Simulation time: 0 hr 26 min 28 sec) 
Finished CPU 0 instructions: 50000001 cycles: 39577266 cumulative IPC: 1.26335 (Simulation time: 0 hr 26 min 28 sec) 

ChampSim completed all CPUs

Region of Interest Statistics

CPU 0 cumulative IPC: 1.26335 instructions: 50000001 cycles: 39577266
L1D TOTAL     ACCESS:   19638160  HIT:   19102385  MISS:     535775
L1D LOAD      ACCESS:    6650060  HIT:    6478368  MISS:     171692
L1D RFO       ACCESS:    6790249  HIT:    6605515  MISS:     184734
L1D PREFETCH  ACCESS:    6197851  HIT:    6018502  MISS:     179349
L1D WRITEBACK ACCESS:          0  HIT:          0  MISS:          0
L1D PREFETCH  REQUESTED:    6674040  ISSUED:    6304544  USEFUL:      59320  USELESS:     119917
L1D AVERAGE MISS LATENCY: 94.9985 cycles
L1I TOTAL     ACCESS:   19295883  HIT:   16221423  MISS:    3074460
L1I LOAD      ACCESS:    9380180  HIT:    9230668  MISS:     149512
L1I RFO       ACCESS:          0  HIT:          0  MISS:          0
L1I PREFETCH  ACCESS:    9915703  HIT:    6990755  MISS:    2924948
L1I WRITEBACK ACCESS:          0  HIT:          0  MISS:          0
L1I PREFETCH  REQUESTED:   10671762  ISSUED:   10182395  USEFUL:    1124284  USELESS:    1800577
L1I AVERAGE MISS LATENCY: 16.3287 cycles
L2C TOTAL     ACCESS:    5080972  HIT:    4682907  MISS:     398065
L2C LOAD      ACCESS:     283487  HIT:     184947  MISS:      98540
L2C RFO       ACCESS:     180919  HIT:      31151  MISS:     149768
L2C PREFETCH  ACCESS:    4363494  HIT:    4215053  MISS:     148441
L2C WRITEBACK ACCESS:     253072  HIT:     251756  MISS:       1316
L2C PREFETCH  REQUESTED:    2366656  ISSUED:    2366456  USEFUL:      19981  USELESS:     127464
L2C AVERAGE MISS LATENCY: 125.396 cycles
LLC TOTAL     ACCESS:     986249  HIT:     685887  MISS:     300362
LLC LOAD      ACCESS:      98524  HIT:      51480  MISS:      47044
LLC RFO       ACCESS:     149766  HIT:      15680  MISS:     134086
LLC PREFETCH  ACCESS:     537413  HIT:     419043  MISS:     118370
LLC WRITEBACK ACCESS:     200546  HIT:     199684  MISS:        862
LLC PREFETCH  REQUESTED:          0  ISSUED:          0  USEFUL:      26413  USELESS:      90251
LLC AVERAGE MISS LATENCY: 166.819 cycles
Major fault: 0 Minor fault: 6090
CPU 0 L1D next line prefetcher final stats

DRAM Statistics
 CHANNEL 0
 RQ ROW_BUFFER_HIT:      94534  ROW_BUFFER_MISS:     204954
 DBUS_CONGESTED:     231019
 WQ ROW_BUFFER_HIT:      54173  ROW_BUFFER_MISS:     128830  FULL:          0

 AVG_CONGESTED_CYCLE: 6

CPU 0 Branch Prediction Accuracy: 97.8666% MPKI: 3.9013 Average ROB Occupancy at Mispredict: 87.0694

Branch types
NOT_BRANCH: 40856330 81.7127%
BRANCH_DIRECT_JUMP: 484667 0.969334%
BRANCH_INDIRECT: 85086 0.170172%
BRANCH_CONDITIONAL: 6230887 12.4618%
BRANCH_DIRECT_CALL: 1028917 2.05783%
BRANCH_INDIRECT_CALL: 141825 0.28365%
BRANCH_RETURN: 1171986 2.34397%
BRANCH_OTHER: 0 0%

