Initialize SIGNATURE TABLE
ST_SET: 1
ST_WAY: 256
ST_TAG_BIT: 16
ST_TAG_MASK: ffff

Initialize PATTERN TABLE
PT_SET: 512
PT_WAY: 4
SIG_DELTA_BIT: 7
C_SIG_BIT: 4
C_DELTA_BIT: 4

Initialize PREFETCH FILTER
FILTER_SET: 1024

*** ChampSim Multicore Out-of-Order Simulator ***

Warmup Instructions: 50000000
Simulation Instructions: 50000000
Number of CPUs: 1
LLC sets: 2048
LLC ways: 16
Off-chip DRAM Size: 4096 MB Channels: 1 Width: 64-bit Data Rate: 3200 MT/s

CPU 0 runs /home/ChampSim-master//dpc3_traces/client_002.champsimtrace.xz
L1I D-JOLT instruction prefetcher has been constructed!
CPU 0 L1D next line prefetcher
Heartbeat CPU 0 instructions: 10000000 cycles: 3404709 heartbeat IPC: 2.93711 cumulative IPC: 2.93711 (Simulation time: 0 hr 2 min 21 sec) 
Heartbeat CPU 0 instructions: 20000002 cycles: 6860032 heartbeat IPC: 2.89409 cumulative IPC: 2.91544 (Simulation time: 0 hr 4 min 56 sec) 
Heartbeat CPU 0 instructions: 30000001 cycles: 10292538 heartbeat IPC: 2.91332 cumulative IPC: 2.91473 (Simulation time: 0 hr 7 min 14 sec) 
Heartbeat CPU 0 instructions: 40000002 cycles: 13725127 heartbeat IPC: 2.91325 cumulative IPC: 2.91436 (Simulation time: 0 hr 10 min 7 sec) 
Heartbeat CPU 0 instructions: 50000002 cycles: 17165689 heartbeat IPC: 2.9065 cumulative IPC: 2.91279 (Simulation time: 0 hr 12 min 50 sec) 

Warmup complete CPU 0 instructions: 50000002 cycles: 17165689 (Simulation time: 0 hr 12 min 50 sec) 

Heartbeat CPU 0 instructions: 60000002 cycles: 23275871 heartbeat IPC: 1.63661 cumulative IPC: 1.63661 (Simulation time: 0 hr 14 min 57 sec) 
Heartbeat CPU 0 instructions: 70000001 cycles: 29460073 heartbeat IPC: 1.61702 cumulative IPC: 1.62676 (Simulation time: 0 hr 17 min 2 sec) 
Heartbeat CPU 0 instructions: 80000002 cycles: 35497172 heartbeat IPC: 1.65642 cumulative IPC: 1.63653 (Simulation time: 0 hr 19 min 5 sec) 
Heartbeat CPU 0 instructions: 90000000 cycles: 42167614 heartbeat IPC: 1.49915 cumulative IPC: 1.59988 (Simulation time: 0 hr 21 min 2 sec) 
Heartbeat CPU 0 instructions: 100000003 cycles: 48280298 heartbeat IPC: 1.63594 cumulative IPC: 1.60696 (Simulation time: 0 hr 22 min 54 sec) 
Finished CPU 0 instructions: 50000001 cycles: 31114609 cumulative IPC: 1.60696 (Simulation time: 0 hr 22 min 54 sec) 

ChampSim completed all CPUs

Region of Interest Statistics

CPU 0 cumulative IPC: 1.60696 instructions: 50000001 cycles: 31114609
L1D TOTAL     ACCESS:   19191176  HIT:   18851780  MISS:     339396
L1D LOAD      ACCESS:    6514917  HIT:    6398317  MISS:     116600
L1D RFO       ACCESS:    6422850  HIT:    6332991  MISS:      89859
L1D PREFETCH  ACCESS:    6253409  HIT:    6120472  MISS:     132937
L1D WRITEBACK ACCESS:          0  HIT:          0  MISS:          0
L1D PREFETCH  REQUESTED:    6525000  ISSUED:    6322444  USEFUL:      54010  USELESS:      79070
L1D AVERAGE MISS LATENCY: 49.1584 cycles
L1I TOTAL     ACCESS:   14608548  HIT:   13252726  MISS:    1355822
L1I LOAD      ACCESS:    9543648  HIT:    9409825  MISS:     133823
L1I RFO       ACCESS:          0  HIT:          0  MISS:          0
L1I PREFETCH  ACCESS:    5064900  HIT:    3842901  MISS:    1221999
L1I WRITEBACK ACCESS:          0  HIT:          0  MISS:          0
L1I PREFETCH  REQUESTED:    5231841  ISSUED:    5169286  USEFUL:     718608  USELESS:     503430
L1I AVERAGE MISS LATENCY: 16.9553 cycles
L2C TOTAL     ACCESS:    2417117  HIT:    2165007  MISS:     252110
L2C LOAD      ACCESS:     227518  HIT:     152675  MISS:      74843
L2C RFO       ACCESS:      88810  HIT:      22592  MISS:      66218
L2C PREFETCH  ACCESS:    1975281  HIT:    1864615  MISS:     110666
L2C WRITEBACK ACCESS:     125508  HIT:     125125  MISS:        383
L2C PREFETCH  REQUESTED:    1290435  ISSUED:    1290298  USEFUL:      22618  USELESS:      87709
L2C AVERAGE MISS LATENCY: 62.2961 cycles
LLC TOTAL     ACCESS:     626668  HIT:     556660  MISS:      70008
LLC LOAD      ACCESS:      74839  HIT:      68177  MISS:       6662
LLC RFO       ACCESS:      66214  HIT:      36577  MISS:      29637
LLC PREFETCH  ACCESS:     401004  HIT:     367548  MISS:      33456
LLC WRITEBACK ACCESS:      84611  HIT:      84358  MISS:        253
LLC PREFETCH  REQUESTED:          0  ISSUED:          0  USEFUL:       5982  USELESS:      27472
LLC AVERAGE MISS LATENCY: 175.406 cycles
Major fault: 0 Minor fault: 3095
CPU 0 L1D next line prefetcher final stats

DRAM Statistics
 CHANNEL 0
 RQ ROW_BUFFER_HIT:      22916  ROW_BUFFER_MISS:      46839
 DBUS_CONGESTED:      41694
 WQ ROW_BUFFER_HIT:       8890  ROW_BUFFER_MISS:      27733  FULL:          0

 AVG_CONGESTED_CYCLE: 6

CPU 0 Branch Prediction Accuracy: 99.2117% MPKI: 1.49752 Average ROB Occupancy at Mispredict: 108.86

Branch types
NOT_BRANCH: 40501616 81.0032%
BRANCH_DIRECT_JUMP: 517397 1.03479%
BRANCH_INDIRECT: 112348 0.224696%
BRANCH_CONDITIONAL: 6698737 13.3975%
BRANCH_DIRECT_CALL: 960974 1.92195%
BRANCH_INDIRECT_CALL: 123707 0.247414%
BRANCH_RETURN: 1084929 2.16986%
BRANCH_OTHER: 0 0%

