Initialize SIGNATURE TABLE
ST_SET: 1
ST_WAY: 256
ST_TAG_BIT: 16
ST_TAG_MASK: ffff

Initialize PATTERN TABLE
PT_SET: 512
PT_WAY: 4
SIG_DELTA_BIT: 7
C_SIG_BIT: 4
C_DELTA_BIT: 4

Initialize PREFETCH FILTER
FILTER_SET: 1024

*** ChampSim Multicore Out-of-Order Simulator ***

Warmup Instructions: 50000000
Simulation Instructions: 50000000
Number of CPUs: 1
LLC sets: 2048
LLC ways: 16
Off-chip DRAM Size: 4096 MB Channels: 1 Width: 64-bit Data Rate: 3200 MT/s

CPU 0 runs /home/ChampSim-master//dpc3_traces/client_006.champsimtrace.xz
L1I D-JOLT instruction prefetcher has been constructed!
CPU 0 L1D next line prefetcher
Heartbeat CPU 0 instructions: 10000003 cycles: 4267394 heartbeat IPC: 2.34335 cumulative IPC: 2.34335 (Simulation time: 0 hr 2 min 58 sec) 
Heartbeat CPU 0 instructions: 20000000 cycles: 8307530 heartbeat IPC: 2.47516 cumulative IPC: 2.40745 (Simulation time: 0 hr 5 min 47 sec) 
Heartbeat CPU 0 instructions: 30000003 cycles: 11371581 heartbeat IPC: 3.26365 cumulative IPC: 2.63816 (Simulation time: 0 hr 8 min 25 sec) 
Heartbeat CPU 0 instructions: 40000000 cycles: 14717120 heartbeat IPC: 2.98905 cumulative IPC: 2.71792 (Simulation time: 0 hr 11 min 35 sec) 
Heartbeat CPU 0 instructions: 50000003 cycles: 18822057 heartbeat IPC: 2.43609 cumulative IPC: 2.65646 (Simulation time: 0 hr 14 min 42 sec) 

Warmup complete CPU 0 instructions: 50000003 cycles: 18822057 (Simulation time: 0 hr 14 min 42 sec) 

Heartbeat CPU 0 instructions: 60000001 cycles: 26689251 heartbeat IPC: 1.2711 cumulative IPC: 1.2711 (Simulation time: 0 hr 16 min 56 sec) 
Heartbeat CPU 0 instructions: 70000000 cycles: 36415815 heartbeat IPC: 1.02811 cumulative IPC: 1.13677 (Simulation time: 0 hr 19 min 15 sec) 
Heartbeat CPU 0 instructions: 80000002 cycles: 44728904 heartbeat IPC: 1.20292 cumulative IPC: 1.15799 (Simulation time: 0 hr 21 min 17 sec) 
Heartbeat CPU 0 instructions: 90000003 cycles: 52559068 heartbeat IPC: 1.27711 cumulative IPC: 1.18564 (Simulation time: 0 hr 22 min 52 sec) 
Heartbeat CPU 0 instructions: 100000001 cycles: 60742957 heartbeat IPC: 1.22191 cumulative IPC: 1.19272 (Simulation time: 0 hr 24 min 39 sec) 
Finished CPU 0 instructions: 50000002 cycles: 41920901 cumulative IPC: 1.19272 (Simulation time: 0 hr 24 min 39 sec) 

ChampSim completed all CPUs

Region of Interest Statistics

CPU 0 cumulative IPC: 1.19272 instructions: 50000002 cycles: 41920901
L1D TOTAL     ACCESS:   16592060  HIT:   15864903  MISS:     727157
L1D LOAD      ACCESS:    6365696  HIT:    5958472  MISS:     407224
L1D RFO       ACCESS:    4332669  HIT:    4290062  MISS:      42607
L1D PREFETCH  ACCESS:    5893695  HIT:    5616369  MISS:     277326
L1D WRITEBACK ACCESS:          0  HIT:          0  MISS:          0
L1D PREFETCH  REQUESTED:    6407680  ISSUED:    6226685  USEFUL:     116325  USELESS:     160875
L1D AVERAGE MISS LATENCY: 82.3623 cycles
L1I TOTAL     ACCESS:   13995830  HIT:   12643795  MISS:    1352035
L1I LOAD      ACCESS:    8487213  HIT:    8472989  MISS:      14224
L1I RFO       ACCESS:          0  HIT:          0  MISS:          0
L1I PREFETCH  ACCESS:    5508617  HIT:    4170806  MISS:    1337811
L1I WRITEBACK ACCESS:          0  HIT:          0  MISS:          0
L1I PREFETCH  REQUESTED:    5786713  ISSUED:    5617641  USEFUL:     862582  USELESS:     475108
L1I AVERAGE MISS LATENCY: 21.3779 cycles
L2C TOTAL     ACCESS:    2926995  HIT:    2372831  MISS:     554164
L2C LOAD      ACCESS:     350949  HIT:     112670  MISS:     238279
L2C RFO       ACCESS:      42333  HIT:      12194  MISS:      30139
L2C PREFETCH  ACCESS:    2357753  HIT:    2072780  MISS:     284973
L2C WRITEBACK ACCESS:     175960  HIT:     175187  MISS:        773
L2C PREFETCH  REQUESTED:    3063366  ISSUED:    3036310  USEFUL:      10998  USELESS:     274891
L2C AVERAGE MISS LATENCY: 116.624 cycles
LLC TOTAL     ACCESS:    1498251  HIT:    1103290  MISS:     394961
LLC LOAD      ACCESS:     228683  HIT:     134634  MISS:      94049
LLC RFO       ACCESS:      30138  HIT:       5329  MISS:      24809
LLC PREFETCH  ACCESS:    1104812  HIT:     829313  MISS:     275499
LLC WRITEBACK ACCESS:     134618  HIT:     134014  MISS:        604
LLC PREFETCH  REQUESTED:          0  ISSUED:          0  USEFUL:      42408  USELESS:     237356
LLC AVERAGE MISS LATENCY: 200.785 cycles
Major fault: 0 Minor fault: 10538
CPU 0 L1D next line prefetcher final stats

DRAM Statistics
 CHANNEL 0
 RQ ROW_BUFFER_HIT:     101266  ROW_BUFFER_MISS:     293064
 DBUS_CONGESTED:     227880
 WQ ROW_BUFFER_HIT:      21624  ROW_BUFFER_MISS:      93218  FULL:          0

 AVG_CONGESTED_CYCLE: 5

CPU 0 Branch Prediction Accuracy: 98.1683% MPKI: 3.13642 Average ROB Occupancy at Mispredict: 87.7078

Branch types
NOT_BRANCH: 41438064 82.8761%
BRANCH_DIRECT_JUMP: 413829 0.827658%
BRANCH_INDIRECT: 47058 0.094116%
BRANCH_CONDITIONAL: 6843835 13.6877%
BRANCH_DIRECT_CALL: 536885 1.07377%
BRANCH_INDIRECT_CALL: 90642 0.181284%
BRANCH_RETURN: 629329 1.25866%
BRANCH_OTHER: 0 0%

