Initialize SIGNATURE TABLE
ST_SET: 1
ST_WAY: 256
ST_TAG_BIT: 16
ST_TAG_MASK: ffff

Initialize PATTERN TABLE
PT_SET: 512
PT_WAY: 4
SIG_DELTA_BIT: 7
C_SIG_BIT: 4
C_DELTA_BIT: 4

Initialize PREFETCH FILTER
FILTER_SET: 1024

*** ChampSim Multicore Out-of-Order Simulator ***

Warmup Instructions: 50000000
Simulation Instructions: 50000000
Number of CPUs: 1
LLC sets: 2048
LLC ways: 16
Off-chip DRAM Size: 4096 MB Channels: 1 Width: 64-bit Data Rate: 3200 MT/s

CPU 0 runs /home/ChampSim-master//dpc3_traces/client_002.champsimtrace.xz
L1I D-JOLT instruction prefetcher has been constructed!
CPU 0 L1D next line prefetcher
Heartbeat CPU 0 instructions: 10000000 cycles: 3404761 heartbeat IPC: 2.93706 cumulative IPC: 2.93706 (Simulation time: 0 hr 2 min 30 sec) 
Heartbeat CPU 0 instructions: 20000002 cycles: 6860013 heartbeat IPC: 2.89415 cumulative IPC: 2.91545 (Simulation time: 0 hr 5 min 2 sec) 
Heartbeat CPU 0 instructions: 30000001 cycles: 10292563 heartbeat IPC: 2.91329 cumulative IPC: 2.91473 (Simulation time: 0 hr 7 min 37 sec) 
Heartbeat CPU 0 instructions: 40000002 cycles: 13725159 heartbeat IPC: 2.91325 cumulative IPC: 2.91436 (Simulation time: 0 hr 10 min 47 sec) 
Heartbeat CPU 0 instructions: 50000002 cycles: 17165766 heartbeat IPC: 2.90646 cumulative IPC: 2.91277 (Simulation time: 0 hr 13 min 35 sec) 

Warmup complete CPU 0 instructions: 50000002 cycles: 17165766 (Simulation time: 0 hr 13 min 35 sec) 

Heartbeat CPU 0 instructions: 60000002 cycles: 23103511 heartbeat IPC: 1.68414 cumulative IPC: 1.68414 (Simulation time: 0 hr 15 min 53 sec) 
Heartbeat CPU 0 instructions: 70000001 cycles: 29093478 heartbeat IPC: 1.66946 cumulative IPC: 1.67677 (Simulation time: 0 hr 18 min 4 sec) 
Heartbeat CPU 0 instructions: 80000002 cycles: 34962314 heartbeat IPC: 1.70392 cumulative IPC: 1.68572 (Simulation time: 0 hr 20 min 15 sec) 
Heartbeat CPU 0 instructions: 90000000 cycles: 41411879 heartbeat IPC: 1.55049 cumulative IPC: 1.64975 (Simulation time: 0 hr 22 min 19 sec) 
Heartbeat CPU 0 instructions: 100000003 cycles: 47341352 heartbeat IPC: 1.68649 cumulative IPC: 1.65697 (Simulation time: 0 hr 24 min 25 sec) 
Finished CPU 0 instructions: 50000001 cycles: 30175586 cumulative IPC: 1.65697 (Simulation time: 0 hr 24 min 25 sec) 

ChampSim completed all CPUs

Region of Interest Statistics

CPU 0 cumulative IPC: 1.65697 instructions: 50000001 cycles: 30175586
L1D TOTAL     ACCESS:   19069294  HIT:   18730078  MISS:     339216
L1D LOAD      ACCESS:    6456695  HIT:    6339343  MISS:     117352
L1D RFO       ACCESS:    6417044  HIT:    6327078  MISS:      89966
L1D PREFETCH  ACCESS:    6195555  HIT:    6063657  MISS:     131898
L1D WRITEBACK ACCESS:          0  HIT:          0  MISS:          0
L1D PREFETCH  REQUESTED:    6467077  ISSUED:    6266006  USEFUL:      53127  USELESS:      78913
L1D AVERAGE MISS LATENCY: 49.2201 cycles
L1I TOTAL     ACCESS:   16255581  HIT:   14554966  MISS:    1700615
L1I LOAD      ACCESS:    9559349  HIT:    9518993  MISS:      40356
L1I RFO       ACCESS:          0  HIT:          0  MISS:          0
L1I PREFETCH  ACCESS:    6696232  HIT:    5035973  MISS:    1660259
L1I WRITEBACK ACCESS:          0  HIT:          0  MISS:          0
L1I PREFETCH  REQUESTED:    7069667  ISSUED:    6896186  USEFUL:     933395  USELESS:     726878
L1I AVERAGE MISS LATENCY: 16.5381 cycles
L2C TOTAL     ACCESS:    2838299  HIT:    2586512  MISS:     251787
L2C LOAD      ACCESS:     135420  HIT:      92987  MISS:      42433
L2C RFO       ACCESS:      88829  HIT:      22487  MISS:      66342
L2C PREFETCH  ACCESS:    2488553  HIT:    2345885  MISS:     142668
L2C WRITEBACK ACCESS:     125497  HIT:     125153  MISS:        344
L2C PREFETCH  REQUESTED:    1496741  ISSUED:    1496361  USEFUL:      12517  USELESS:     129525
L2C AVERAGE MISS LATENCY: 62.8112 cycles
LLC TOTAL     ACCESS:     673195  HIT:     602684  MISS:      70511
LLC LOAD      ACCESS:      42431  HIT:      36054  MISS:       6377
LLC RFO       ACCESS:      66342  HIT:      36519  MISS:      29823
LLC PREFETCH  ACCESS:     479833  HIT:     445790  MISS:      34043
LLC WRITEBACK ACCESS:      84589  HIT:      84321  MISS:        268
LLC PREFETCH  REQUESTED:          0  ISSUED:          0  USEFUL:       5515  USELESS:      28312
LLC AVERAGE MISS LATENCY: 174.21 cycles
Major fault: 0 Minor fault: 3093
CPU 0 L1D next line prefetcher final stats

DRAM Statistics
 CHANNEL 0
 RQ ROW_BUFFER_HIT:      22961  ROW_BUFFER_MISS:      47282
 DBUS_CONGESTED:      41605
 WQ ROW_BUFFER_HIT:       8829  ROW_BUFFER_MISS:      27875  FULL:          0

 AVG_CONGESTED_CYCLE: 6

CPU 0 Branch Prediction Accuracy: 99.2117% MPKI: 1.49752 Average ROB Occupancy at Mispredict: 119.097

Branch types
NOT_BRANCH: 40501616 81.0032%
BRANCH_DIRECT_JUMP: 517397 1.03479%
BRANCH_INDIRECT: 112348 0.224696%
BRANCH_CONDITIONAL: 6698737 13.3975%
BRANCH_DIRECT_CALL: 960974 1.92195%
BRANCH_INDIRECT_CALL: 123707 0.247414%
BRANCH_RETURN: 1084929 2.16986%
BRANCH_OTHER: 0 0%

