Initialize SIGNATURE TABLE
ST_SET: 1
ST_WAY: 256
ST_TAG_BIT: 16
ST_TAG_MASK: ffff

Initialize PATTERN TABLE
PT_SET: 512
PT_WAY: 4
SIG_DELTA_BIT: 7
C_SIG_BIT: 4
C_DELTA_BIT: 4

Initialize PREFETCH FILTER
FILTER_SET: 1024

*** ChampSim Multicore Out-of-Order Simulator ***

Warmup Instructions: 50000000
Simulation Instructions: 50000000
Number of CPUs: 1
LLC sets: 2048
LLC ways: 16
Off-chip DRAM Size: 4096 MB Channels: 1 Width: 64-bit Data Rate: 3200 MT/s

CPU 0 runs /home/ChampSim-master//dpc3_traces/client_007.champsimtrace.xz
L1I D-JOLT instruction prefetcher has been constructed!
CPU 0 L1D next line prefetcher
Heartbeat CPU 0 instructions: 10000001 cycles: 3642273 heartbeat IPC: 2.74554 cumulative IPC: 2.74554 (Simulation time: 0 hr 3 min 10 sec) 
Heartbeat CPU 0 instructions: 20000003 cycles: 7034647 heartbeat IPC: 2.94779 cumulative IPC: 2.84307 (Simulation time: 0 hr 6 min 4 sec) 
Heartbeat CPU 0 instructions: 30000000 cycles: 10907251 heartbeat IPC: 2.58224 cumulative IPC: 2.75046 (Simulation time: 0 hr 9 min 7 sec) 
Heartbeat CPU 0 instructions: 40000003 cycles: 15067256 heartbeat IPC: 2.40384 cumulative IPC: 2.65476 (Simulation time: 0 hr 12 min 10 sec) 
Heartbeat CPU 0 instructions: 50000002 cycles: 18472614 heartbeat IPC: 2.93655 cumulative IPC: 2.70671 (Simulation time: 0 hr 14 min 53 sec) 

Warmup complete CPU 0 instructions: 50000002 cycles: 18472614 (Simulation time: 0 hr 14 min 54 sec) 

Heartbeat CPU 0 instructions: 60000003 cycles: 25368716 heartbeat IPC: 1.45009 cumulative IPC: 1.45009 (Simulation time: 0 hr 17 min 30 sec) 
Heartbeat CPU 0 instructions: 70000003 cycles: 34239126 heartbeat IPC: 1.12734 cumulative IPC: 1.26851 (Simulation time: 0 hr 20 min 14 sec) 
Heartbeat CPU 0 instructions: 80000002 cycles: 39573989 heartbeat IPC: 1.87446 cumulative IPC: 1.42171 (Simulation time: 0 hr 22 min 2 sec) 
Heartbeat CPU 0 instructions: 90000002 cycles: 47196978 heartbeat IPC: 1.31182 cumulative IPC: 1.39255 (Simulation time: 0 hr 24 min 29 sec) 
Heartbeat CPU 0 instructions: 100000002 cycles: 56127361 heartbeat IPC: 1.11977 cumulative IPC: 1.32785 (Simulation time: 0 hr 26 min 34 sec) 
Finished CPU 0 instructions: 50000000 cycles: 37654747 cumulative IPC: 1.32785 (Simulation time: 0 hr 26 min 34 sec) 

ChampSim completed all CPUs

Region of Interest Statistics

CPU 0 cumulative IPC: 1.32785 instructions: 50000000 cycles: 37654747
L1D TOTAL     ACCESS:   21198633  HIT:   20029537  MISS:    1169096
L1D LOAD      ACCESS:    8369822  HIT:    7830357  MISS:     539465
L1D RFO       ACCESS:    4869056  HIT:    4777989  MISS:      91067
L1D PREFETCH  ACCESS:    7959755  HIT:    7421191  MISS:     538564
L1D WRITEBACK ACCESS:          0  HIT:          0  MISS:          0
L1D PREFETCH  REQUESTED:    8421844  ISSUED:    8177921  USEFUL:     158106  USELESS:     380474
L1D AVERAGE MISS LATENCY: 34.4748 cycles
L1I TOTAL     ACCESS:   13318761  HIT:   12132849  MISS:    1185912
L1I LOAD      ACCESS:    9109621  HIT:    9052000  MISS:      57621
L1I RFO       ACCESS:          0  HIT:          0  MISS:          0
L1I PREFETCH  ACCESS:    4209140  HIT:    3080849  MISS:    1128291
L1I WRITEBACK ACCESS:          0  HIT:          0  MISS:          0
L1I PREFETCH  REQUESTED:    4497643  ISSUED:    4403529  USEFUL:     844328  USELESS:     284029
L1I AVERAGE MISS LATENCY: 16.4809 cycles
L2C TOTAL     ACCESS:    3505108  HIT:    3296455  MISS:     208653
L2C LOAD      ACCESS:     568811  HIT:     498678  MISS:      70133
L2C RFO       ACCESS:      89453  HIT:      47408  MISS:      42045
L2C PREFETCH  ACCESS:    2519149  HIT:    2422788  MISS:      96361
L2C WRITEBACK ACCESS:     327695  HIT:     327581  MISS:        114
L2C PREFETCH  REQUESTED:    2524085  ISSUED:    2517426  USEFUL:       9835  USELESS:      86483
L2C AVERAGE MISS LATENCY: 123.752 cycles
LLC TOTAL     ACCESS:     930932  HIT:     762590  MISS:     168342
LLC LOAD      ACCESS:      70062  HIT:      34672  MISS:      35390
LLC RFO       ACCESS:      42045  HIT:       7629  MISS:      34416
LLC PREFETCH  ACCESS:     744066  HIT:     645825  MISS:      98241
LLC WRITEBACK ACCESS:      74759  HIT:      74464  MISS:        295
LLC PREFETCH  REQUESTED:          0  ISSUED:          0  USEFUL:      18724  USELESS:      80794
LLC AVERAGE MISS LATENCY: 181.886 cycles
Major fault: 0 Minor fault: 4411
CPU 0 L1D next line prefetcher final stats

DRAM Statistics
 CHANNEL 0
 RQ ROW_BUFFER_HIT:      35357  ROW_BUFFER_MISS:     132681
 DBUS_CONGESTED:      93663
 WQ ROW_BUFFER_HIT:      12657  ROW_BUFFER_MISS:      45300  FULL:          0

 AVG_CONGESTED_CYCLE: 5

CPU 0 Branch Prediction Accuracy: 98.8607% MPKI: 1.8623 Average ROB Occupancy at Mispredict: 113.274

Branch types
NOT_BRANCH: 41826773 83.6535%
BRANCH_DIRECT_JUMP: 735330 1.47066%
BRANCH_INDIRECT: 269194 0.538388%
BRANCH_CONDITIONAL: 5957947 11.9159%
BRANCH_DIRECT_CALL: 368758 0.737516%
BRANCH_INDIRECT_CALL: 226975 0.45395%
BRANCH_RETURN: 614696 1.22939%
BRANCH_OTHER: 0 0%

