Initialize SIGNATURE TABLE
ST_SET: 1
ST_WAY: 256
ST_TAG_BIT: 16
ST_TAG_MASK: ffff

Initialize PATTERN TABLE
PT_SET: 512
PT_WAY: 4
SIG_DELTA_BIT: 7
C_SIG_BIT: 4
C_DELTA_BIT: 4

Initialize PREFETCH FILTER
FILTER_SET: 1024

*** ChampSim Multicore Out-of-Order Simulator ***

Warmup Instructions: 50000000
Simulation Instructions: 50000000
Number of CPUs: 1
LLC sets: 2048
LLC ways: 16
Off-chip DRAM Size: 4096 MB Channels: 1 Width: 64-bit Data Rate: 3200 MT/s

CPU 0 runs /home/ChampSim-master//dpc3_traces/client_008.champsimtrace.xz
L1I D-JOLT instruction prefetcher has been constructed!
CPU 0 L1D next line prefetcher
Heartbeat CPU 0 instructions: 10000001 cycles: 3754757 heartbeat IPC: 2.66329 cumulative IPC: 2.66329 (Simulation time: 0 hr 3 min 24 sec) 
Heartbeat CPU 0 instructions: 20000001 cycles: 7532295 heartbeat IPC: 2.64723 cumulative IPC: 2.65523 (Simulation time: 0 hr 6 min 57 sec) 
Heartbeat CPU 0 instructions: 30000000 cycles: 11260149 heartbeat IPC: 2.68251 cumulative IPC: 2.66426 (Simulation time: 0 hr 10 min 32 sec) 
Heartbeat CPU 0 instructions: 40000002 cycles: 15056353 heartbeat IPC: 2.63421 cumulative IPC: 2.65669 (Simulation time: 0 hr 14 min 0 sec) 
Heartbeat CPU 0 instructions: 50000003 cycles: 18850111 heartbeat IPC: 2.63591 cumulative IPC: 2.6525 (Simulation time: 0 hr 17 min 4 sec) 

Warmup complete CPU 0 instructions: 50000003 cycles: 18850111 (Simulation time: 0 hr 17 min 4 sec) 

Heartbeat CPU 0 instructions: 60000000 cycles: 27047689 heartbeat IPC: 1.21987 cumulative IPC: 1.21987 (Simulation time: 0 hr 19 min 54 sec) 
Heartbeat CPU 0 instructions: 70000000 cycles: 35021739 heartbeat IPC: 1.25407 cumulative IPC: 1.23673 (Simulation time: 0 hr 23 min 0 sec) 
Heartbeat CPU 0 instructions: 80000000 cycles: 44115163 heartbeat IPC: 1.0997 cumulative IPC: 1.18741 (Simulation time: 0 hr 25 min 5 sec) 
Heartbeat CPU 0 instructions: 90000000 cycles: 51492009 heartbeat IPC: 1.35559 cumulative IPC: 1.22542 (Simulation time: 0 hr 26 min 20 sec) 
Heartbeat CPU 0 instructions: 100000001 cycles: 59540628 heartbeat IPC: 1.24245 cumulative IPC: 1.22879 (Simulation time: 0 hr 26 min 56 sec) 
Finished CPU 0 instructions: 50000002 cycles: 40690518 cumulative IPC: 1.22879 (Simulation time: 0 hr 26 min 56 sec) 

ChampSim completed all CPUs

Region of Interest Statistics

CPU 0 cumulative IPC: 1.22879 instructions: 50000002 cycles: 40690518
L1D TOTAL     ACCESS:   20483781  HIT:   18855345  MISS:    1628436
L1D LOAD      ACCESS:    8063676  HIT:    7264197  MISS:     799479
L1D RFO       ACCESS:    4814690  HIT:    4705176  MISS:     109514
L1D PREFETCH  ACCESS:    7605415  HIT:    6885972  MISS:     719443
L1D WRITEBACK ACCESS:          0  HIT:          0  MISS:          0
L1D PREFETCH  REQUESTED:    8133290  ISSUED:    7964672  USEFUL:     199703  USELESS:     519744
L1D AVERAGE MISS LATENCY: 33.015 cycles
L1I TOTAL     ACCESS:   15773000  HIT:   14261614  MISS:    1511386
L1I LOAD      ACCESS:    9771856  HIT:    9712475  MISS:      59381
L1I RFO       ACCESS:          0  HIT:          0  MISS:          0
L1I PREFETCH  ACCESS:    6001144  HIT:    4549139  MISS:    1452005
L1I WRITEBACK ACCESS:          0  HIT:          0  MISS:          0
L1I PREFETCH  REQUESTED:    6358187  ISSUED:    6329493  USEFUL:     814177  USELESS:     637926
L1I AVERAGE MISS LATENCY: 16.7921 cycles
L2C TOTAL     ACCESS:    4387480  HIT:    3924029  MISS:     463451
L2C LOAD      ACCESS:     787576  HIT:     618004  MISS:     169572
L2C RFO       ACCESS:     104280  HIT:      18354  MISS:      85926
L2C PREFETCH  ACCESS:    3313634  HIT:    3106136  MISS:     207498
L2C WRITEBACK ACCESS:     181990  HIT:     181535  MISS:        455
L2C PREFETCH  REQUESTED:    3045040  ISSUED:    3027314  USEFUL:      20094  USELESS:     189387
L2C AVERAGE MISS LATENCY: 75.419 cycles
LLC TOTAL     ACCESS:    1467363  HIT:    1282796  MISS:     184567
LLC LOAD      ACCESS:     169472  HIT:     146449  MISS:      23023
LLC RFO       ACCESS:      85925  HIT:      15348  MISS:      70577
LLC PREFETCH  ACCESS:    1076379  HIT:     985776  MISS:      90603
LLC WRITEBACK ACCESS:     135587  HIT:     135223  MISS:        364
LLC PREFETCH  REQUESTED:          0  ISSUED:          0  USEFUL:      24613  USELESS:      73946
LLC AVERAGE MISS LATENCY: 167.262 cycles
Major fault: 0 Minor fault: 5306
CPU 0 L1D next line prefetcher final stats

DRAM Statistics
 CHANNEL 0
 RQ ROW_BUFFER_HIT:      51651  ROW_BUFFER_MISS:     132542
 DBUS_CONGESTED:      97030
 WQ ROW_BUFFER_HIT:      24218  ROW_BUFFER_MISS:      65491  FULL:          0

 AVG_CONGESTED_CYCLE: 6

CPU 0 Branch Prediction Accuracy: 98.6482% MPKI: 3.1551 Average ROB Occupancy at Mispredict: 96.7218

Branch types
NOT_BRANCH: 38329598 76.6592%
BRANCH_DIRECT_JUMP: 510116 1.02023%
BRANCH_INDIRECT: 225730 0.45146%
BRANCH_CONDITIONAL: 8366762 16.7335%
BRANCH_DIRECT_CALL: 600748 1.2015%
BRANCH_INDIRECT_CALL: 682990 1.36598%
BRANCH_RETURN: 1283974 2.56795%
BRANCH_OTHER: 0 0%

