Initialize SIGNATURE TABLE
ST_SET: 1
ST_WAY: 256
ST_TAG_BIT: 16
ST_TAG_MASK: ffff

Initialize PATTERN TABLE
PT_SET: 512
PT_WAY: 4
SIG_DELTA_BIT: 7
C_SIG_BIT: 4
C_DELTA_BIT: 4

Initialize PREFETCH FILTER
FILTER_SET: 1024

*** ChampSim Multicore Out-of-Order Simulator ***

Warmup Instructions: 50000000
Simulation Instructions: 50000000
Number of CPUs: 1
LLC sets: 2048
LLC ways: 16
Off-chip DRAM Size: 4096 MB Channels: 1 Width: 64-bit Data Rate: 3200 MT/s

CPU 0 runs /home/ChampSim-master//dpc3_traces/client_001.champsimtrace.xz
L1I D-JOLT instruction prefetcher has been constructed!
CPU 0 L1D next line prefetcher
Heartbeat CPU 0 instructions: 10000003 cycles: 3410608 heartbeat IPC: 2.93203 cumulative IPC: 2.93203 (Simulation time: 0 hr 2 min 50 sec) 
Heartbeat CPU 0 instructions: 20000001 cycles: 7119261 heartbeat IPC: 2.6964 cumulative IPC: 2.80928 (Simulation time: 0 hr 5 min 54 sec) 
Heartbeat CPU 0 instructions: 30000001 cycles: 10482258 heartbeat IPC: 2.97354 cumulative IPC: 2.86198 (Simulation time: 0 hr 8 min 44 sec) 
Heartbeat CPU 0 instructions: 40000003 cycles: 14352301 heartbeat IPC: 2.58395 cumulative IPC: 2.78701 (Simulation time: 0 hr 11 min 18 sec) 
Heartbeat CPU 0 instructions: 50000003 cycles: 17649780 heartbeat IPC: 3.03262 cumulative IPC: 2.8329 (Simulation time: 0 hr 13 min 47 sec) 

Warmup complete CPU 0 instructions: 50000003 cycles: 17649780 (Simulation time: 0 hr 13 min 48 sec) 

Heartbeat CPU 0 instructions: 60000000 cycles: 26689926 heartbeat IPC: 1.10618 cumulative IPC: 1.10618 (Simulation time: 0 hr 16 min 7 sec) 
Heartbeat CPU 0 instructions: 70000000 cycles: 33053824 heartbeat IPC: 1.57136 cumulative IPC: 1.29836 (Simulation time: 0 hr 18 min 17 sec) 
Heartbeat CPU 0 instructions: 80000002 cycles: 42384380 heartbeat IPC: 1.07175 cumulative IPC: 1.21288 (Simulation time: 0 hr 21 min 1 sec) 
Heartbeat CPU 0 instructions: 90000000 cycles: 48618929 heartbeat IPC: 1.60396 cumulative IPC: 1.29161 (Simulation time: 0 hr 23 min 4 sec) 
Heartbeat CPU 0 instructions: 100000002 cycles: 57472691 heartbeat IPC: 1.12946 cumulative IPC: 1.25556 (Simulation time: 0 hr 24 min 54 sec) 
Finished CPU 0 instructions: 50000003 cycles: 39822912 cumulative IPC: 1.25556 (Simulation time: 0 hr 24 min 54 sec) 

ChampSim completed all CPUs

Region of Interest Statistics

CPU 0 cumulative IPC: 1.25556 instructions: 50000003 cycles: 39822912
L1D TOTAL     ACCESS:   21212060  HIT:   20375584  MISS:     836476
L1D LOAD      ACCESS:    8808061  HIT:    8413246  MISS:     394815
L1D RFO       ACCESS:    4039560  HIT:    3980436  MISS:      59124
L1D PREFETCH  ACCESS:    8364439  HIT:    7981902  MISS:     382537
L1D WRITEBACK ACCESS:          0  HIT:          0  MISS:          0
L1D PREFETCH  REQUESTED:    8853290  ISSUED:    8544134  USEFUL:     129577  USELESS:     252933
L1D AVERAGE MISS LATENCY: 48.0429 cycles
L1I TOTAL     ACCESS:   13542366  HIT:   12711741  MISS:     830625
L1I LOAD      ACCESS:    8945828  HIT:    8931911  MISS:      13917
L1I RFO       ACCESS:          0  HIT:          0  MISS:          0
L1I PREFETCH  ACCESS:    4596538  HIT:    3779830  MISS:     816708
L1I WRITEBACK ACCESS:          0  HIT:          0  MISS:          0
L1I PREFETCH  REQUESTED:    4844250  ISSUED:    4689708  USEFUL:     433953  USELESS:     382633
L1I AVERAGE MISS LATENCY: 18.1632 cycles
L2C TOTAL     ACCESS:    2579284  HIT:    2274503  MISS:     304781
L2C LOAD      ACCESS:     381827  HIT:     268092  MISS:     113735
L2C RFO       ACCESS:      58342  HIT:      21470  MISS:      36872
L2C PREFETCH  ACCESS:    1949510  HIT:    1795564  MISS:     153946
L2C WRITEBACK ACCESS:     189605  HIT:     189377  MISS:        228
L2C PREFETCH  REQUESTED:    1952799  ISSUED:    1946473  USEFUL:      13298  USELESS:     139377
L2C AVERAGE MISS LATENCY: 106.322 cycles
LLC TOTAL     ACCESS:     861833  HIT:     661803  MISS:     200030
LLC LOAD      ACCESS:     113426  HIT:      70964  MISS:      42462
LLC RFO       ACCESS:      36872  HIT:       8556  MISS:      28316
LLC PREFETCH  ACCESS:     605088  HIT:     476596  MISS:     128492
LLC WRITEBACK ACCESS:     106447  HIT:     105687  MISS:        760
LLC PREFETCH  REQUESTED:          0  ISSUED:          0  USEFUL:      28494  USELESS:     102174
LLC AVERAGE MISS LATENCY: 189.784 cycles
Major fault: 0 Minor fault: 3439
CPU 0 L1D next line prefetcher final stats

DRAM Statistics
 CHANNEL 0
 RQ ROW_BUFFER_HIT:      47938  ROW_BUFFER_MISS:     151321
 DBUS_CONGESTED:     115816
 WQ ROW_BUFFER_HIT:      15636  ROW_BUFFER_MISS:      64637  FULL:          0

 AVG_CONGESTED_CYCLE: 5

CPU 0 Branch Prediction Accuracy: 97.9037% MPKI: 3.63418 Average ROB Occupancy at Mispredict: 86.9831

Branch types
NOT_BRANCH: 41331377 82.6627%
BRANCH_DIRECT_JUMP: 455615 0.91123%
BRANCH_INDIRECT: 20390 0.04078%
BRANCH_CONDITIONAL: 6745374 13.4907%
BRANCH_DIRECT_CALL: 494532 0.989064%
BRANCH_INDIRECT_CALL: 228815 0.45763%
BRANCH_RETURN: 723560 1.44712%
BRANCH_OTHER: 0 0%

