Initialize SIGNATURE TABLE
ST_SET: 1
ST_WAY: 256
ST_TAG_BIT: 16
ST_TAG_MASK: ffff

Initialize PATTERN TABLE
PT_SET: 512
PT_WAY: 4
SIG_DELTA_BIT: 7
C_SIG_BIT: 4
C_DELTA_BIT: 4

Initialize PREFETCH FILTER
FILTER_SET: 1024

*** ChampSim Multicore Out-of-Order Simulator ***

Warmup Instructions: 50000000
Simulation Instructions: 50000000
Number of CPUs: 1
LLC sets: 2048
LLC ways: 16
Off-chip DRAM Size: 4096 MB Channels: 1 Width: 64-bit Data Rate: 3200 MT/s

CPU 0 runs /home/ChampSim-master//dpc3_traces/client_008.champsimtrace.xz
CPU 0 EPI prefetcher
CPU 0 L1D next line prefetcher
Heartbeat CPU 0 instructions: 10000001 cycles: 3751506 heartbeat IPC: 2.6656 cumulative IPC: 2.6656 (Simulation time: 0 hr 3 min 13 sec) 
Heartbeat CPU 0 instructions: 20000001 cycles: 7524418 heartbeat IPC: 2.65047 cumulative IPC: 2.65801 (Simulation time: 0 hr 6 min 27 sec) 
Heartbeat CPU 0 instructions: 30000000 cycles: 11248888 heartbeat IPC: 2.68495 cumulative IPC: 2.66693 (Simulation time: 0 hr 9 min 45 sec) 
Heartbeat CPU 0 instructions: 40000002 cycles: 15039843 heartbeat IPC: 2.63786 cumulative IPC: 2.6596 (Simulation time: 0 hr 13 min 27 sec) 
Heartbeat CPU 0 instructions: 50000003 cycles: 18828172 heartbeat IPC: 2.63969 cumulative IPC: 2.6556 (Simulation time: 0 hr 16 min 46 sec) 

Warmup complete CPU 0 instructions: 50000003 cycles: 18828172 (Simulation time: 0 hr 16 min 46 sec) 

Heartbeat CPU 0 instructions: 60000000 cycles: 27151115 heartbeat IPC: 1.2015 cumulative IPC: 1.2015 (Simulation time: 0 hr 19 min 46 sec) 
Heartbeat CPU 0 instructions: 70000000 cycles: 35189131 heartbeat IPC: 1.24409 cumulative IPC: 1.22242 (Simulation time: 0 hr 22 min 59 sec) 
Heartbeat CPU 0 instructions: 80000001 cycles: 44255506 heartbeat IPC: 1.10298 cumulative IPC: 1.17983 (Simulation time: 0 hr 25 min 3 sec) 
Heartbeat CPU 0 instructions: 90000001 cycles: 51588698 heartbeat IPC: 1.36366 cumulative IPC: 1.22098 (Simulation time: 0 hr 26 min 28 sec) 
Heartbeat CPU 0 instructions: 100000001 cycles: 59626027 heartbeat IPC: 1.24419 cumulative IPC: 1.22555 (Simulation time: 0 hr 27 min 16 sec) 
Finished CPU 0 instructions: 50000002 cycles: 40797856 cumulative IPC: 1.22555 (Simulation time: 0 hr 27 min 16 sec) 

ChampSim completed all CPUs

Region of Interest Statistics

CPU 0 cumulative IPC: 1.22555 instructions: 50000002 cycles: 40797856
L1D TOTAL     ACCESS:   20578367  HIT:   18949503  MISS:    1628864
L1D LOAD      ACCESS:    8107437  HIT:    7310503  MISS:     796934
L1D RFO       ACCESS:    4818079  HIT:    4708619  MISS:     109460
L1D PREFETCH  ACCESS:    7652851  HIT:    6930381  MISS:     722470
L1D WRITEBACK ACCESS:          0  HIT:          0  MISS:          0
L1D PREFETCH  REQUESTED:    8176593  ISSUED:    8008590  USEFUL:     202409  USELESS:     520066
L1D AVERAGE MISS LATENCY: 32.6018 cycles
L1I TOTAL     ACCESS:   22518017  HIT:   21754192  MISS:     763825
L1I LOAD      ACCESS:    9660374  HIT:    9417594  MISS:     242780
L1I RFO       ACCESS:          0  HIT:          0  MISS:          0
L1I PREFETCH  ACCESS:   12857643  HIT:   12336598  MISS:     521045
L1I WRITEBACK ACCESS:          0  HIT:          0  MISS:          0
L1I PREFETCH  REQUESTED:   14242942  ISSUED:   14242942  USEFUL:     460358  USELESS:      60688
L1I AVERAGE MISS LATENCY: 17.4788 cycles
L2C TOTAL     ACCESS:    3560425  HIT:    3119149  MISS:     441276
L2C LOAD      ACCESS:     981222  HIT:     812552  MISS:     168670
L2C RFO       ACCESS:     104229  HIT:      18290  MISS:      85939
L2C PREFETCH  ACCESS:    2292983  HIT:    2106730  MISS:     186253
L2C WRITEBACK ACCESS:     181991  HIT:     181577  MISS:        414
L2C PREFETCH  REQUESTED:    2534823  ISSUED:    2533798  USEFUL:      17979  USELESS:     169582
L2C AVERAGE MISS LATENCY: 76.8562 cycles
LLC TOTAL     ACCESS:    1259319  HIT:    1080575  MISS:     178744
LLC LOAD      ACCESS:     168515  HIT:     147097  MISS:      21418
LLC RFO       ACCESS:      85934  HIT:      15849  MISS:      70085
LLC PREFETCH  ACCESS:     869180  HIT:     782305  MISS:      86875
LLC WRITEBACK ACCESS:     135690  HIT:     135324  MISS:        366
LLC PREFETCH  REQUESTED:          0  ISSUED:          0  USEFUL:      24652  USELESS:      69740
LLC AVERAGE MISS LATENCY: 167.434 cycles
Major fault: 0 Minor fault: 5303
CPU 0 L1I EPI prefetcher final stats
CPU 0 L1D next line prefetcher final stats

DRAM Statistics
 CHANNEL 0
 RQ ROW_BUFFER_HIT:      51264  ROW_BUFFER_MISS:     127095
 DBUS_CONGESTED:      96355
 WQ ROW_BUFFER_HIT:      23812  ROW_BUFFER_MISS:      66225  FULL:          0

 AVG_CONGESTED_CYCLE: 6

CPU 0 Branch Prediction Accuracy: 98.6482% MPKI: 3.1551 Average ROB Occupancy at Mispredict: 94.7174

Branch types
NOT_BRANCH: 38329598 76.6592%
BRANCH_DIRECT_JUMP: 510116 1.02023%
BRANCH_INDIRECT: 225730 0.45146%
BRANCH_CONDITIONAL: 8366762 16.7335%
BRANCH_DIRECT_CALL: 600748 1.2015%
BRANCH_INDIRECT_CALL: 682990 1.36598%
BRANCH_RETURN: 1283974 2.56795%
BRANCH_OTHER: 0 0%

