Initialize SIGNATURE TABLE
ST_SET: 1
ST_WAY: 256
ST_TAG_BIT: 16
ST_TAG_MASK: ffff

Initialize PATTERN TABLE
PT_SET: 512
PT_WAY: 4
SIG_DELTA_BIT: 7
C_SIG_BIT: 4
C_DELTA_BIT: 4

Initialize PREFETCH FILTER
FILTER_SET: 1024

*** ChampSim Multicore Out-of-Order Simulator ***

Warmup Instructions: 50000000
Simulation Instructions: 50000000
Number of CPUs: 1
LLC sets: 2048
LLC ways: 16
Off-chip DRAM Size: 4096 MB Channels: 1 Width: 64-bit Data Rate: 3200 MT/s

CPU 0 runs /home/ChampSim-master//dpc3_traces/client_004.champsimtrace.xz
L1I D-JOLT instruction prefetcher has been constructed!
CPU 0 L1D next line prefetcher
Heartbeat CPU 0 instructions: 10000000 cycles: 3592441 heartbeat IPC: 2.78362 cumulative IPC: 2.78362 (Simulation time: 0 hr 2 min 38 sec) 
Heartbeat CPU 0 instructions: 20000003 cycles: 7056872 heartbeat IPC: 2.88648 cumulative IPC: 2.83412 (Simulation time: 0 hr 5 min 12 sec) 
Heartbeat CPU 0 instructions: 30000000 cycles: 10647603 heartbeat IPC: 2.78495 cumulative IPC: 2.81754 (Simulation time: 0 hr 8 min 0 sec) 
Heartbeat CPU 0 instructions: 40000003 cycles: 14328158 heartbeat IPC: 2.71698 cumulative IPC: 2.79171 (Simulation time: 0 hr 10 min 50 sec) 
Heartbeat CPU 0 instructions: 50000001 cycles: 17847117 heartbeat IPC: 2.84175 cumulative IPC: 2.80157 (Simulation time: 0 hr 13 min 33 sec) 

Warmup complete CPU 0 instructions: 50000001 cycles: 17847117 (Simulation time: 0 hr 13 min 33 sec) 

Heartbeat CPU 0 instructions: 60000002 cycles: 25856658 heartbeat IPC: 1.24851 cumulative IPC: 1.24851 (Simulation time: 0 hr 15 min 46 sec) 
Heartbeat CPU 0 instructions: 70000001 cycles: 33860760 heartbeat IPC: 1.24936 cumulative IPC: 1.24894 (Simulation time: 0 hr 18 min 26 sec) 
Heartbeat CPU 0 instructions: 80000002 cycles: 42872874 heartbeat IPC: 1.10962 cumulative IPC: 1.19876 (Simulation time: 0 hr 20 min 46 sec) 
Heartbeat CPU 0 instructions: 90000000 cycles: 51199632 heartbeat IPC: 1.20095 cumulative IPC: 1.19931 (Simulation time: 0 hr 22 min 45 sec) 
Heartbeat CPU 0 instructions: 100000001 cycles: 59347682 heartbeat IPC: 1.22729 cumulative IPC: 1.2048 (Simulation time: 0 hr 24 min 39 sec) 
Finished CPU 0 instructions: 50000000 cycles: 41500565 cumulative IPC: 1.2048 (Simulation time: 0 hr 24 min 39 sec) 

ChampSim completed all CPUs

Region of Interest Statistics

CPU 0 cumulative IPC: 1.2048 instructions: 50000000 cycles: 41500565
L1D TOTAL     ACCESS:   21960567  HIT:   21071566  MISS:     889001
L1D LOAD      ACCESS:    8721750  HIT:    8325692  MISS:     396058
L1D RFO       ACCESS:    4810927  HIT:    4689493  MISS:     121434
L1D PREFETCH  ACCESS:    8427890  HIT:    8056381  MISS:     371509
L1D WRITEBACK ACCESS:          0  HIT:          0  MISS:          0
L1D PREFETCH  REQUESTED:    8761375  ISSUED:    8601846  USEFUL:     132973  USELESS:     238544
L1D AVERAGE MISS LATENCY: 29.5816 cycles
L1I TOTAL     ACCESS:   14960193  HIT:   13814338  MISS:    1145855
L1I LOAD      ACCESS:    9400545  HIT:    9260080  MISS:     140465
L1I RFO       ACCESS:          0  HIT:          0  MISS:          0
L1I PREFETCH  ACCESS:    5559648  HIT:    4554258  MISS:    1005390
L1I WRITEBACK ACCESS:          0  HIT:          0  MISS:          0
L1I PREFETCH  REQUESTED:    6007744  ISSUED:    5917860  USEFUL:     536340  USELESS:     469107
L1I AVERAGE MISS LATENCY: 21.5095 cycles
L2C TOTAL     ACCESS:    3015479  HIT:    2713695  MISS:     301784
L2C LOAD      ACCESS:     499165  HIT:     410328  MISS:      88837
L2C RFO       ACCESS:     117357  HIT:      44356  MISS:      73001
L2C PREFETCH  ACCESS:    2176921  HIT:    2037746  MISS:     139175
L2C WRITEBACK ACCESS:     222036  HIT:     221265  MISS:        771
L2C PREFETCH  REQUESTED:    1659527  ISSUED:    1658830  USEFUL:      28765  USELESS:     109977
L2C AVERAGE MISS LATENCY: 74.7745 cycles
LLC TOTAL     ACCESS:     718454  HIT:     589557  MISS:     128897
LLC LOAD      ACCESS:      88817  HIT:      59542  MISS:      29275
LLC RFO       ACCESS:      73001  HIT:      42461  MISS:      30540
LLC PREFETCH  ACCESS:     454393  HIT:     385545  MISS:      68848
LLC WRITEBACK ACCESS:     102243  HIT:     102009  MISS:        234
LLC PREFETCH  REQUESTED:          0  ISSUED:          0  USEFUL:      25443  USELESS:      46152
LLC AVERAGE MISS LATENCY: 166.564 cycles
Major fault: 0 Minor fault: 3981
CPU 0 L1D next line prefetcher final stats

DRAM Statistics
 CHANNEL 0
 RQ ROW_BUFFER_HIT:      30333  ROW_BUFFER_MISS:      98320
 DBUS_CONGESTED:      54169
 WQ ROW_BUFFER_HIT:       9935  ROW_BUFFER_MISS:      33201  FULL:          0

 AVG_CONGESTED_CYCLE: 6

CPU 0 Branch Prediction Accuracy: 94.1242% MPKI: 11.6089 Average ROB Occupancy at Mispredict: 55.7044

Branch types
NOT_BRANCH: 40121075 80.2421%
BRANCH_DIRECT_JUMP: 644555 1.28911%
BRANCH_INDIRECT: 201946 0.403892%
BRANCH_CONDITIONAL: 7003556 14.0071%
BRANCH_DIRECT_CALL: 564821 1.12964%
BRANCH_INDIRECT_CALL: 445012 0.890024%
BRANCH_RETURN: 1018716 2.03743%
BRANCH_OTHER: 0 0%

