Initialize SIGNATURE TABLE
ST_SET: 1
ST_WAY: 256
ST_TAG_BIT: 16
ST_TAG_MASK: ffff

Initialize PATTERN TABLE
PT_SET: 512
PT_WAY: 4
SIG_DELTA_BIT: 7
C_SIG_BIT: 4
C_DELTA_BIT: 4

Initialize PREFETCH FILTER
FILTER_SET: 1024

*** ChampSim Multicore Out-of-Order Simulator ***

Warmup Instructions: 50000000
Simulation Instructions: 50000000
Number of CPUs: 1
LLC sets: 2048
LLC ways: 16
Off-chip DRAM Size: 4096 MB Channels: 1 Width: 64-bit Data Rate: 3200 MT/s

CPU 0 runs /home/ChampSim-master//dpc3_traces/client_005.champsimtrace.xz
L1I D-JOLT instruction prefetcher has been constructed!
CPU 0 L1D next line prefetcher
Heartbeat CPU 0 instructions: 10000001 cycles: 3291915 heartbeat IPC: 3.03775 cumulative IPC: 3.03775 (Simulation time: 0 hr 2 min 45 sec) 
Heartbeat CPU 0 instructions: 20000002 cycles: 6698417 heartbeat IPC: 2.93556 cumulative IPC: 2.98578 (Simulation time: 0 hr 5 min 43 sec) 
Heartbeat CPU 0 instructions: 30000001 cycles: 10391735 heartbeat IPC: 2.70759 cumulative IPC: 2.88691 (Simulation time: 0 hr 8 min 43 sec) 
Heartbeat CPU 0 instructions: 40000000 cycles: 14069656 heartbeat IPC: 2.71893 cumulative IPC: 2.843 (Simulation time: 0 hr 11 min 45 sec) 
Heartbeat CPU 0 instructions: 50000001 cycles: 17343477 heartbeat IPC: 3.05454 cumulative IPC: 2.88293 (Simulation time: 0 hr 14 min 23 sec) 

Warmup complete CPU 0 instructions: 50000001 cycles: 17343477 (Simulation time: 0 hr 14 min 23 sec) 

Heartbeat CPU 0 instructions: 60000002 cycles: 25266461 heartbeat IPC: 1.26215 cumulative IPC: 1.26215 (Simulation time: 0 hr 16 min 50 sec) 
Heartbeat CPU 0 instructions: 70000003 cycles: 32648787 heartbeat IPC: 1.35459 cumulative IPC: 1.30674 (Simulation time: 0 hr 19 min 23 sec) 
Heartbeat CPU 0 instructions: 80000001 cycles: 39518208 heartbeat IPC: 1.45573 cumulative IPC: 1.35289 (Simulation time: 0 hr 22 min 8 sec) 
Heartbeat CPU 0 instructions: 90000002 cycles: 49084597 heartbeat IPC: 1.04533 cumulative IPC: 1.2602 (Simulation time: 0 hr 24 min 39 sec) 
Heartbeat CPU 0 instructions: 100000002 cycles: 56868669 heartbeat IPC: 1.28467 cumulative IPC: 1.26502 (Simulation time: 0 hr 25 min 55 sec) 
Finished CPU 0 instructions: 50000001 cycles: 39525192 cumulative IPC: 1.26502 (Simulation time: 0 hr 25 min 55 sec) 

ChampSim completed all CPUs

Region of Interest Statistics

CPU 0 cumulative IPC: 1.26502 instructions: 50000001 cycles: 39525192
L1D TOTAL     ACCESS:   19636850  HIT:   19101042  MISS:     535808
L1D LOAD      ACCESS:    6650122  HIT:    6478253  MISS:     171869
L1D RFO       ACCESS:    6789691  HIT:    6605019  MISS:     184672
L1D PREFETCH  ACCESS:    6197037  HIT:    6017770  MISS:     179267
L1D WRITEBACK ACCESS:          0  HIT:          0  MISS:          0
L1D PREFETCH  REQUESTED:    6674176  ISSUED:    6304247  USEFUL:      59188  USELESS:     119966
L1D AVERAGE MISS LATENCY: 95.1123 cycles
L1I TOTAL     ACCESS:   20285844  HIT:   16944750  MISS:    3341094
L1I LOAD      ACCESS:    9391128  HIT:    9250173  MISS:     140955
L1I RFO       ACCESS:          0  HIT:          0  MISS:          0
L1I PREFETCH  ACCESS:   10894716  HIT:    7694577  MISS:    3200139
L1I WRITEBACK ACCESS:          0  HIT:          0  MISS:          0
L1I PREFETCH  REQUESTED:   11882567  ISSUED:   11255318  USEFUL:    1168441  USELESS:    2031619
L1I AVERAGE MISS LATENCY: 16.2444 cycles
L2C TOTAL     ACCESS:    5420315  HIT:    5014113  MISS:     406202
L2C LOAD      ACCESS:     273840  HIT:     177101  MISS:      96739
L2C RFO       ACCESS:     180879  HIT:      30401  MISS:     150478
L2C PREFETCH  ACCESS:    4712529  HIT:    4555172  MISS:     157357
L2C WRITEBACK ACCESS:     253067  HIT:     251439  MISS:       1628
L2C PREFETCH  REQUESTED:    2484930  ISSUED:    2484633  USEFUL:      19248  USELESS:     136980
L2C AVERAGE MISS LATENCY: 123.679 cycles
LLC TOTAL     ACCESS:    1001643  HIT:     701749  MISS:     299894
LLC LOAD      ACCESS:      96726  HIT:      49856  MISS:      46870
LLC RFO       ACCESS:     150478  HIT:      16467  MISS:     134011
LLC PREFETCH  ACCESS:     553002  HIT:     434859  MISS:     118143
LLC WRITEBACK ACCESS:     201437  HIT:     200567  MISS:        870
LLC PREFETCH  REQUESTED:          0  ISSUED:          0  USEFUL:      25862  USELESS:      90594
LLC AVERAGE MISS LATENCY: 167.097 cycles
Major fault: 0 Minor fault: 6090
CPU 0 L1D next line prefetcher final stats

DRAM Statistics
 CHANNEL 0
 RQ ROW_BUFFER_HIT:      94558  ROW_BUFFER_MISS:     204464
 DBUS_CONGESTED:     231689
 WQ ROW_BUFFER_HIT:      53919  ROW_BUFFER_MISS:     128837  FULL:          0

 AVG_CONGESTED_CYCLE: 6

CPU 0 Branch Prediction Accuracy: 97.8666% MPKI: 3.9013 Average ROB Occupancy at Mispredict: 87.4686

Branch types
NOT_BRANCH: 40856330 81.7127%
BRANCH_DIRECT_JUMP: 484667 0.969334%
BRANCH_INDIRECT: 85086 0.170172%
BRANCH_CONDITIONAL: 6230887 12.4618%
BRANCH_DIRECT_CALL: 1028917 2.05783%
BRANCH_INDIRECT_CALL: 141825 0.28365%
BRANCH_RETURN: 1171986 2.34397%
BRANCH_OTHER: 0 0%

