Initialize SIGNATURE TABLE
ST_SET: 1
ST_WAY: 256
ST_TAG_BIT: 16
ST_TAG_MASK: ffff

Initialize PATTERN TABLE
PT_SET: 512
PT_WAY: 4
SIG_DELTA_BIT: 7
C_SIG_BIT: 4
C_DELTA_BIT: 4

Initialize PREFETCH FILTER
FILTER_SET: 1024

*** ChampSim Multicore Out-of-Order Simulator ***

Warmup Instructions: 50000000
Simulation Instructions: 50000000
Number of CPUs: 1
LLC sets: 2048
LLC ways: 16
Off-chip DRAM Size: 4096 MB Channels: 1 Width: 64-bit Data Rate: 3200 MT/s

CPU 0 runs /home/ChampSim-master//dpc3_traces/client_003.champsimtrace.xz
L1I D-JOLT instruction prefetcher has been constructed!
CPU 0 L1D next line prefetcher
Heartbeat CPU 0 instructions: 10000000 cycles: 3478444 heartbeat IPC: 2.87485 cumulative IPC: 2.87485 (Simulation time: 0 hr 3 min 17 sec) 
Heartbeat CPU 0 instructions: 20000002 cycles: 6932644 heartbeat IPC: 2.89503 cumulative IPC: 2.8849 (Simulation time: 0 hr 6 min 24 sec) 
Heartbeat CPU 0 instructions: 30000003 cycles: 10493549 heartbeat IPC: 2.80828 cumulative IPC: 2.8589 (Simulation time: 0 hr 9 min 37 sec) 
Heartbeat CPU 0 instructions: 40000001 cycles: 14109998 heartbeat IPC: 2.76514 cumulative IPC: 2.83487 (Simulation time: 0 hr 12 min 35 sec) 
Heartbeat CPU 0 instructions: 50000003 cycles: 17655106 heartbeat IPC: 2.82079 cumulative IPC: 2.83204 (Simulation time: 0 hr 15 min 21 sec) 

Warmup complete CPU 0 instructions: 50000003 cycles: 17655106 (Simulation time: 0 hr 15 min 21 sec) 

Heartbeat CPU 0 instructions: 60000002 cycles: 24009765 heartbeat IPC: 1.57365 cumulative IPC: 1.57365 (Simulation time: 0 hr 17 min 49 sec) 
Heartbeat CPU 0 instructions: 70000001 cycles: 30102342 heartbeat IPC: 1.64134 cumulative IPC: 1.60678 (Simulation time: 0 hr 20 min 18 sec) 
Heartbeat CPU 0 instructions: 80000001 cycles: 37137348 heartbeat IPC: 1.42146 cumulative IPC: 1.53986 (Simulation time: 0 hr 22 min 29 sec) 
Heartbeat CPU 0 instructions: 90000000 cycles: 46193504 heartbeat IPC: 1.10422 cumulative IPC: 1.40162 (Simulation time: 0 hr 24 min 8 sec) 
Heartbeat CPU 0 instructions: 100000003 cycles: 57111836 heartbeat IPC: 0.915891 cumulative IPC: 1.26721 (Simulation time: 0 hr 25 min 31 sec) 
Finished CPU 0 instructions: 50000000 cycles: 39456730 cumulative IPC: 1.26721 (Simulation time: 0 hr 25 min 31 sec) 

ChampSim completed all CPUs

Region of Interest Statistics

CPU 0 cumulative IPC: 1.26721 instructions: 50000000 cycles: 39456730
L1D TOTAL     ACCESS:   17644231  HIT:   17148278  MISS:     495953
L1D LOAD      ACCESS:    6039390  HIT:    5913764  MISS:     125626
L1D RFO       ACCESS:    5948229  HIT:    5713797  MISS:     234432
L1D PREFETCH  ACCESS:    5656612  HIT:    5520717  MISS:     135895
L1D WRITEBACK ACCESS:          0  HIT:          0  MISS:          0
L1D PREFETCH  REQUESTED:    6081255  ISSUED:    5940389  USEFUL:      68029  USELESS:      67914
L1D AVERAGE MISS LATENCY: 123.615 cycles
L1I TOTAL     ACCESS:   15378254  HIT:   13729234  MISS:    1649020
L1I LOAD      ACCESS:    9483931  HIT:    9380119  MISS:     103812
L1I RFO       ACCESS:          0  HIT:          0  MISS:          0
L1I PREFETCH  ACCESS:    5894323  HIT:    4349115  MISS:    1545208
L1I WRITEBACK ACCESS:          0  HIT:          0  MISS:          0
L1I PREFETCH  REQUESTED:    6148767  ISSUED:    6075488  USEFUL:     673638  USELESS:     871650
L1I AVERAGE MISS LATENCY: 16.9231 cycles
L2C TOTAL     ACCESS:    3070309  HIT:    2665823  MISS:     404486
L2C LOAD      ACCESS:     170079  HIT:     118883  MISS:      51196
L2C RFO       ACCESS:     232294  HIT:      24693  MISS:     207601
L2C PREFETCH  ACCESS:    2398651  HIT:    2254148  MISS:     144503
L2C WRITEBACK ACCESS:     269285  HIT:     268099  MISS:       1186
L2C PREFETCH  REQUESTED:    1500767  ISSUED:    1500644  USEFUL:      15657  USELESS:     128753
L2C AVERAGE MISS LATENCY: 163.881 cycles
LLC TOTAL     ACCESS:    1000197  HIT:     713440  MISS:     286757
LLC LOAD      ACCESS:      51103  HIT:      35611  MISS:      15492
LLC RFO       ACCESS:     207592  HIT:      34953  MISS:     172639
LLC PREFETCH  ACCESS:     516029  HIT:     417782  MISS:      98247
LLC WRITEBACK ACCESS:     225473  HIT:     225094  MISS:        379
LLC PREFETCH  REQUESTED:          0  ISSUED:          0  USEFUL:      12358  USELESS:      85608
LLC AVERAGE MISS LATENCY: 229.497 cycles
Major fault: 0 Minor fault: 5045
CPU 0 L1D next line prefetcher final stats

DRAM Statistics
 CHANNEL 0
 RQ ROW_BUFFER_HIT:      98802  ROW_BUFFER_MISS:     187571
 DBUS_CONGESTED:     253508
 WQ ROW_BUFFER_HIT:      60159  ROW_BUFFER_MISS:     118709  FULL:          0

 AVG_CONGESTED_CYCLE: 6

CPU 0 Branch Prediction Accuracy: 98.6631% MPKI: 2.66884 Average ROB Occupancy at Mispredict: 76.839

Branch types
NOT_BRANCH: 40018772 80.0375%
BRANCH_DIRECT_JUMP: 370861 0.741722%
BRANCH_INDIRECT: 83252 0.166504%
BRANCH_CONDITIONAL: 7877435 15.7549%
BRANCH_DIRECT_CALL: 722315 1.44463%
BRANCH_INDIRECT_CALL: 101901 0.203802%
BRANCH_RETURN: 825355 1.65071%
BRANCH_OTHER: 0 0%

