Initialize SIGNATURE TABLE
ST_SET: 1
ST_WAY: 256
ST_TAG_BIT: 16
ST_TAG_MASK: ffff

Initialize PATTERN TABLE
PT_SET: 512
PT_WAY: 4
SIG_DELTA_BIT: 7
C_SIG_BIT: 4
C_DELTA_BIT: 4

Initialize PREFETCH FILTER
FILTER_SET: 1024

*** ChampSim Multicore Out-of-Order Simulator ***

Warmup Instructions: 50000000
Simulation Instructions: 50000000
Number of CPUs: 1
LLC sets: 2048
LLC ways: 16
Off-chip DRAM Size: 4096 MB Channels: 1 Width: 64-bit Data Rate: 3200 MT/s

CPU 0 runs /home/ChampSim-master//dpc3_traces/client_004.champsimtrace.xz
CPU 0 EPI prefetcher
CPU 0 L1D next line prefetcher
Heartbeat CPU 0 instructions: 10000000 cycles: 3592626 heartbeat IPC: 2.78348 cumulative IPC: 2.78348 (Simulation time: 0 hr 2 min 58 sec) 
Heartbeat CPU 0 instructions: 20000003 cycles: 7057033 heartbeat IPC: 2.8865 cumulative IPC: 2.83405 (Simulation time: 0 hr 5 min 38 sec) 
Heartbeat CPU 0 instructions: 30000000 cycles: 10647605 heartbeat IPC: 2.78507 cumulative IPC: 2.81753 (Simulation time: 0 hr 8 min 29 sec) 
Heartbeat CPU 0 instructions: 40000003 cycles: 14328199 heartbeat IPC: 2.71695 cumulative IPC: 2.7917 (Simulation time: 0 hr 11 min 24 sec) 
Heartbeat CPU 0 instructions: 50000001 cycles: 17846310 heartbeat IPC: 2.84243 cumulative IPC: 2.8017 (Simulation time: 0 hr 14 min 25 sec) 

Warmup complete CPU 0 instructions: 50000001 cycles: 17846310 (Simulation time: 0 hr 14 min 25 sec) 

Heartbeat CPU 0 instructions: 60000002 cycles: 25800908 heartbeat IPC: 1.25713 cumulative IPC: 1.25713 (Simulation time: 0 hr 16 min 47 sec) 
Heartbeat CPU 0 instructions: 70000001 cycles: 33689974 heartbeat IPC: 1.26758 cumulative IPC: 1.26233 (Simulation time: 0 hr 19 min 18 sec) 
Heartbeat CPU 0 instructions: 80000002 cycles: 42425170 heartbeat IPC: 1.14479 cumulative IPC: 1.22056 (Simulation time: 0 hr 21 min 36 sec) 
Heartbeat CPU 0 instructions: 90000000 cycles: 50574654 heartbeat IPC: 1.22707 cumulative IPC: 1.22218 (Simulation time: 0 hr 23 min 56 sec) 
Heartbeat CPU 0 instructions: 100000000 cycles: 58612179 heartbeat IPC: 1.24416 cumulative IPC: 1.22652 (Simulation time: 0 hr 26 min 5 sec) 
Finished CPU 0 instructions: 50000000 cycles: 40765870 cumulative IPC: 1.22652 (Simulation time: 0 hr 26 min 5 sec) 

ChampSim completed all CPUs

Region of Interest Statistics

CPU 0 cumulative IPC: 1.22652 instructions: 50000000 cycles: 40765870
L1D TOTAL     ACCESS:   21963126  HIT:   21074051  MISS:     889075
L1D LOAD      ACCESS:    8721493  HIT:    8325782  MISS:     395711
L1D RFO       ACCESS:    4813002  HIT:    4691668  MISS:     121334
L1D PREFETCH  ACCESS:    8428631  HIT:    8056601  MISS:     372030
L1D WRITEBACK ACCESS:          0  HIT:          0  MISS:          0
L1D PREFETCH  REQUESTED:    8760397  ISSUED:    8600536  USEFUL:     133466  USELESS:     238572
L1D AVERAGE MISS LATENCY: 29.4383 cycles
L1I TOTAL     ACCESS:   27147856  HIT:   26358165  MISS:     789691
L1I LOAD      ACCESS:    9371439  HIT:    9240679  MISS:     130760
L1I RFO       ACCESS:          0  HIT:          0  MISS:          0
L1I PREFETCH  ACCESS:   17776417  HIT:   17117486  MISS:     658931
L1I WRITEBACK ACCESS:          0  HIT:          0  MISS:          0
L1I PREFETCH  REQUESTED:   20658573  ISSUED:   20658573  USEFUL:     459003  USELESS:     199953
L1I AVERAGE MISS LATENCY: 24.4815 cycles
L2C TOTAL     ACCESS:    2542299  HIT:    2256514  MISS:     285785
L2C LOAD      ACCESS:     484504  HIT:     407418  MISS:      77086
L2C RFO       ACCESS:     117371  HIT:      45798  MISS:      71573
L2C PREFETCH  ACCESS:    1718377  HIT:    1581939  MISS:     136438
L2C WRITEBACK ACCESS:     222047  HIT:     221359  MISS:        688
L2C PREFETCH  REQUESTED:    1568749  ISSUED:    1568451  USEFUL:      22677  USELESS:     112723
L2C AVERAGE MISS LATENCY: 79.2896 cycles
LLC TOTAL     ACCESS:     686335  HIT:     558879  MISS:     127456
LLC LOAD      ACCESS:      77051  HIT:      52489  MISS:      24562
LLC RFO       ACCESS:      71573  HIT:      41165  MISS:      30408
LLC PREFETCH  ACCESS:     437672  HIT:     365441  MISS:      72231
LLC WRITEBACK ACCESS:     100039  HIT:      99784  MISS:        255
LLC PREFETCH  REQUESTED:          0  ISSUED:          0  USEFUL:      25794  USELESS:      47087
LLC AVERAGE MISS LATENCY: 174.023 cycles
Major fault: 0 Minor fault: 3977
CPU 0 L1I EPI prefetcher final stats
CPU 0 L1D next line prefetcher final stats

DRAM Statistics
 CHANNEL 0
 RQ ROW_BUFFER_HIT:      31705  ROW_BUFFER_MISS:      95487
 DBUS_CONGESTED:      56859
 WQ ROW_BUFFER_HIT:       9141  ROW_BUFFER_MISS:      33861  FULL:          0

 AVG_CONGESTED_CYCLE: 6

CPU 0 Branch Prediction Accuracy: 94.1242% MPKI: 11.6089 Average ROB Occupancy at Mispredict: 56.3254

Branch types
NOT_BRANCH: 40121057 80.2421%
BRANCH_DIRECT_JUMP: 644555 1.28911%
BRANCH_INDIRECT: 201946 0.403892%
BRANCH_CONDITIONAL: 7003556 14.0071%
BRANCH_DIRECT_CALL: 564820 1.12964%
BRANCH_INDIRECT_CALL: 445012 0.890024%
BRANCH_RETURN: 1018716 2.03743%
BRANCH_OTHER: 0 0%

