Initialize SIGNATURE TABLE
ST_SET: 1
ST_WAY: 256
ST_TAG_BIT: 16
ST_TAG_MASK: ffff

Initialize PATTERN TABLE
PT_SET: 512
PT_WAY: 4
SIG_DELTA_BIT: 7
C_SIG_BIT: 4
C_DELTA_BIT: 4

Initialize PREFETCH FILTER
FILTER_SET: 1024

*** ChampSim Multicore Out-of-Order Simulator ***

Warmup Instructions: 50000000
Simulation Instructions: 50000000
Number of CPUs: 1
LLC sets: 2048
LLC ways: 16
Off-chip DRAM Size: 4096 MB Channels: 1 Width: 64-bit Data Rate: 3200 MT/s

CPU 0 runs /home/ChampSim-master//dpc3_traces/client_006.champsimtrace.xz
CPU 0 EPI prefetcher
CPU 0 L1D next line prefetcher
Heartbeat CPU 0 instructions: 10000003 cycles: 4267406 heartbeat IPC: 2.34334 cumulative IPC: 2.34334 (Simulation time: 0 hr 3 min 24 sec) 
Heartbeat CPU 0 instructions: 20000000 cycles: 8307429 heartbeat IPC: 2.47523 cumulative IPC: 2.40748 (Simulation time: 0 hr 6 min 54 sec) 
Heartbeat CPU 0 instructions: 30000003 cycles: 11370836 heartbeat IPC: 3.26434 cumulative IPC: 2.63833 (Simulation time: 0 hr 9 min 41 sec) 
Heartbeat CPU 0 instructions: 40000000 cycles: 14715477 heartbeat IPC: 2.98986 cumulative IPC: 2.71823 (Simulation time: 0 hr 12 min 40 sec) 
Heartbeat CPU 0 instructions: 50000003 cycles: 18820317 heartbeat IPC: 2.43615 cumulative IPC: 2.6567 (Simulation time: 0 hr 15 min 45 sec) 

Warmup complete CPU 0 instructions: 50000003 cycles: 18820317 (Simulation time: 0 hr 15 min 45 sec) 

Heartbeat CPU 0 instructions: 60000001 cycles: 26630284 heartbeat IPC: 1.28041 cumulative IPC: 1.28041 (Simulation time: 0 hr 18 min 13 sec) 
Heartbeat CPU 0 instructions: 70000003 cycles: 36365257 heartbeat IPC: 1.02722 cumulative IPC: 1.13993 (Simulation time: 0 hr 20 min 37 sec) 
Heartbeat CPU 0 instructions: 80000002 cycles: 44638025 heartbeat IPC: 1.20879 cumulative IPC: 1.16199 (Simulation time: 0 hr 22 min 57 sec) 
Heartbeat CPU 0 instructions: 90000003 cycles: 52465095 heartbeat IPC: 1.27762 cumulative IPC: 1.18889 (Simulation time: 0 hr 25 min 4 sec) 
Heartbeat CPU 0 instructions: 100000001 cycles: 60647071 heartbeat IPC: 1.2222 cumulative IPC: 1.19541 (Simulation time: 0 hr 27 min 17 sec) 
Finished CPU 0 instructions: 50000002 cycles: 41826755 cumulative IPC: 1.19541 (Simulation time: 0 hr 27 min 17 sec) 

ChampSim completed all CPUs

Region of Interest Statistics

CPU 0 cumulative IPC: 1.19541 instructions: 50000002 cycles: 41826755
L1D TOTAL     ACCESS:   16597205  HIT:   15869991  MISS:     727214
L1D LOAD      ACCESS:    6367334  HIT:    5961501  MISS:     405833
L1D RFO       ACCESS:    4332796  HIT:    4290177  MISS:      42619
L1D PREFETCH  ACCESS:    5897075  HIT:    5618313  MISS:     278762
L1D WRITEBACK ACCESS:          0  HIT:          0  MISS:          0
L1D PREFETCH  REQUESTED:    6408460  ISSUED:    6227464  USEFUL:     117743  USELESS:     160894
L1D AVERAGE MISS LATENCY: 82.846 cycles
L1I TOTAL     ACCESS:   28347924  HIT:   27569548  MISS:     778376
L1I LOAD      ACCESS:    8461651  HIT:    8451408  MISS:      10243
L1I RFO       ACCESS:          0  HIT:          0  MISS:          0
L1I PREFETCH  ACCESS:   19886273  HIT:   19118140  MISS:     768133
L1I WRITEBACK ACCESS:          0  HIT:          0  MISS:          0
L1I PREFETCH  REQUESTED:   23459598  ISSUED:   23459598  USEFUL:     681940  USELESS:      86257
L1I AVERAGE MISS LATENCY: 25.5225 cycles
L2C TOTAL     ACCESS:    2128662  HIT:    1582703  MISS:     545959
L2C LOAD      ACCESS:     347026  HIT:     110904  MISS:     236122
L2C RFO       ACCESS:      42356  HIT:      12432  MISS:      29924
L2C PREFETCH  ACCESS:    1563298  HIT:    1284147  MISS:     279151
L2C WRITEBACK ACCESS:     175982  HIT:     175220  MISS:        762
L2C PREFETCH  REQUESTED:    2579819  ISSUED:    2554605  USEFUL:      10312  USELESS:     269965
L2C AVERAGE MISS LATENCY: 119.594 cycles
LLC TOTAL     ACCESS:    1267304  HIT:     871666  MISS:     395638
LLC LOAD      ACCESS:     226800  HIT:     133449  MISS:      93351
LLC RFO       ACCESS:      29923  HIT:       5097  MISS:      24826
LLC PREFETCH  ACCESS:     876577  HIT:     599738  MISS:     276839
LLC WRITEBACK ACCESS:     134004  HIT:     133382  MISS:        622
LLC PREFETCH  REQUESTED:          0  ISSUED:          0  USEFUL:      41490  USELESS:     238251
LLC AVERAGE MISS LATENCY: 204.008 cycles
Major fault: 0 Minor fault: 10527
CPU 0 L1I EPI prefetcher final stats
CPU 0 L1D next line prefetcher final stats

DRAM Statistics
 CHANNEL 0
 RQ ROW_BUFFER_HIT:     102558  ROW_BUFFER_MISS:     292438
 DBUS_CONGESTED:     232111
 WQ ROW_BUFFER_HIT:      21405  ROW_BUFFER_MISS:      94658  FULL:          0

 AVG_CONGESTED_CYCLE: 5

CPU 0 Branch Prediction Accuracy: 98.1683% MPKI: 3.13642 Average ROB Occupancy at Mispredict: 87.601

Branch types
NOT_BRANCH: 41438057 82.8761%
BRANCH_DIRECT_JUMP: 413829 0.827658%
BRANCH_INDIRECT: 47058 0.094116%
BRANCH_CONDITIONAL: 6843835 13.6877%
BRANCH_DIRECT_CALL: 536885 1.07377%
BRANCH_INDIRECT_CALL: 90642 0.181284%
BRANCH_RETURN: 629329 1.25866%
BRANCH_OTHER: 0 0%

