Initialize SIGNATURE TABLE
ST_SET: 1
ST_WAY: 256
ST_TAG_BIT: 16
ST_TAG_MASK: ffff

Initialize PATTERN TABLE
PT_SET: 512
PT_WAY: 4
SIG_DELTA_BIT: 7
C_SIG_BIT: 4
C_DELTA_BIT: 4

Initialize PREFETCH FILTER
FILTER_SET: 1024

*** ChampSim Multicore Out-of-Order Simulator ***

Warmup Instructions: 50000000
Simulation Instructions: 50000000
Number of CPUs: 1
LLC sets: 2048
LLC ways: 16
Off-chip DRAM Size: 4096 MB Channels: 1 Width: 64-bit Data Rate: 3200 MT/s

CPU 0 runs /home/ChampSim-master//dpc3_traces/client_001.champsimtrace.xz
L1I D-JOLT instruction prefetcher has been constructed!
CPU 0 L1D next line prefetcher
Heartbeat CPU 0 instructions: 10000003 cycles: 3410825 heartbeat IPC: 2.93184 cumulative IPC: 2.93184 (Simulation time: 0 hr 3 min 1 sec) 
Heartbeat CPU 0 instructions: 20000001 cycles: 7119550 heartbeat IPC: 2.69634 cumulative IPC: 2.80917 (Simulation time: 0 hr 6 min 4 sec) 
Heartbeat CPU 0 instructions: 30000001 cycles: 10483122 heartbeat IPC: 2.97303 cumulative IPC: 2.86174 (Simulation time: 0 hr 9 min 1 sec) 
Heartbeat CPU 0 instructions: 40000003 cycles: 14353316 heartbeat IPC: 2.58385 cumulative IPC: 2.78681 (Simulation time: 0 hr 12 min 16 sec) 
Heartbeat CPU 0 instructions: 50000003 cycles: 17651390 heartbeat IPC: 3.03207 cumulative IPC: 2.83264 (Simulation time: 0 hr 14 min 46 sec) 

Warmup complete CPU 0 instructions: 50000003 cycles: 17651390 (Simulation time: 0 hr 14 min 46 sec) 

Heartbeat CPU 0 instructions: 60000000 cycles: 26707619 heartbeat IPC: 1.10421 cumulative IPC: 1.10421 (Simulation time: 0 hr 17 min 25 sec) 
Heartbeat CPU 0 instructions: 70000000 cycles: 33117741 heartbeat IPC: 1.56003 cumulative IPC: 1.29313 (Simulation time: 0 hr 19 min 36 sec) 
Heartbeat CPU 0 instructions: 80000002 cycles: 42465779 heartbeat IPC: 1.06974 cumulative IPC: 1.20898 (Simulation time: 0 hr 22 min 12 sec) 
Heartbeat CPU 0 instructions: 90000000 cycles: 48743816 heartbeat IPC: 1.59285 cumulative IPC: 1.28649 (Simulation time: 0 hr 24 min 17 sec) 
Heartbeat CPU 0 instructions: 100000002 cycles: 57596141 heartbeat IPC: 1.12965 cumulative IPC: 1.25173 (Simulation time: 0 hr 26 min 21 sec) 
Finished CPU 0 instructions: 50000003 cycles: 39944752 cumulative IPC: 1.25173 (Simulation time: 0 hr 26 min 21 sec) 

ChampSim completed all CPUs

Region of Interest Statistics

CPU 0 cumulative IPC: 1.25173 instructions: 50000003 cycles: 39944752
L1D TOTAL     ACCESS:   21221688  HIT:   20385197  MISS:     836491
L1D LOAD      ACCESS:    8812934  HIT:    8417989  MISS:     394945
L1D RFO       ACCESS:    4040649  HIT:    3981591  MISS:      59058
L1D PREFETCH  ACCESS:    8368105  HIT:    7985617  MISS:     382488
L1D WRITEBACK ACCESS:          0  HIT:          0  MISS:          0
L1D PREFETCH  REQUESTED:    8858346  ISSUED:    8549344  USEFUL:     129482  USELESS:     252979
L1D AVERAGE MISS LATENCY: 48.2036 cycles
L1I TOTAL     ACCESS:   14165095  HIT:   13230687  MISS:     934408
L1I LOAD      ACCESS:    8956730  HIT:    8944354  MISS:      12376
L1I RFO       ACCESS:          0  HIT:          0  MISS:          0
L1I PREFETCH  ACCESS:    5208365  HIT:    4286333  MISS:     922032
L1I WRITEBACK ACCESS:          0  HIT:          0  MISS:          0
L1I PREFETCH  REQUESTED:    5554093  ISSUED:    5410250  USEFUL:     460777  USELESS:     461121
L1I AVERAGE MISS LATENCY: 17.9372 cycles
L2C TOTAL     ACCESS:    2728212  HIT:    2422276  MISS:     305936
L2C LOAD      ACCESS:     386290  HIT:     271973  MISS:     114317
L2C RFO       ACCESS:      58295  HIT:      21356  MISS:      36939
L2C PREFETCH  ACCESS:    2094019  HIT:    1939586  MISS:     154433
L2C WRITEBACK ACCESS:     189608  HIT:     189361  MISS:        247
L2C PREFETCH  REQUESTED:    2034896  ISSUED:    2029948  USEFUL:      13591  USELESS:     139680
L2C AVERAGE MISS LATENCY: 106.563 cycles
LLC TOTAL     ACCESS:     818085  HIT:     617399  MISS:     200686
LLC LOAD      ACCESS:     113995  HIT:      70644  MISS:      43351
LLC RFO       ACCESS:      36939  HIT:       8718  MISS:      28221
LLC PREFETCH  ACCESS:     560462  HIT:     432086  MISS:     128376
LLC WRITEBACK ACCESS:     106689  HIT:     105951  MISS:        738
LLC PREFETCH  REQUESTED:          0  ISSUED:          0  USEFUL:      27951  USELESS:     102448
LLC AVERAGE MISS LATENCY: 189.768 cycles
Major fault: 0 Minor fault: 3439
CPU 0 L1D next line prefetcher final stats

DRAM Statistics
 CHANNEL 0
 RQ ROW_BUFFER_HIT:      47539  ROW_BUFFER_MISS:     152400
 DBUS_CONGESTED:     114977
 WQ ROW_BUFFER_HIT:      15828  ROW_BUFFER_MISS:      64796  FULL:          0

 AVG_CONGESTED_CYCLE: 5

CPU 0 Branch Prediction Accuracy: 97.9037% MPKI: 3.63418 Average ROB Occupancy at Mispredict: 87.2326

Branch types
NOT_BRANCH: 41331377 82.6627%
BRANCH_DIRECT_JUMP: 455615 0.91123%
BRANCH_INDIRECT: 20390 0.04078%
BRANCH_CONDITIONAL: 6745374 13.4907%
BRANCH_DIRECT_CALL: 494532 0.989064%
BRANCH_INDIRECT_CALL: 228815 0.45763%
BRANCH_RETURN: 723560 1.44712%
BRANCH_OTHER: 0 0%

