Initialize SIGNATURE TABLE
ST_SET: 1
ST_WAY: 256
ST_TAG_BIT: 16
ST_TAG_MASK: ffff

Initialize PATTERN TABLE
PT_SET: 512
PT_WAY: 4
SIG_DELTA_BIT: 7
C_SIG_BIT: 4
C_DELTA_BIT: 4

Initialize PREFETCH FILTER
FILTER_SET: 1024

*** ChampSim Multicore Out-of-Order Simulator ***

Warmup Instructions: 50000000
Simulation Instructions: 50000000
Number of CPUs: 1
LLC sets: 2048
LLC ways: 16
Off-chip DRAM Size: 4096 MB Channels: 1 Width: 64-bit Data Rate: 3200 MT/s

CPU 0 runs /home/ChampSim-master//dpc3_traces/client_004.champsimtrace.xz
L1I D-JOLT instruction prefetcher has been constructed!
CPU 0 L1D next line prefetcher
Heartbeat CPU 0 instructions: 10000000 cycles: 3592532 heartbeat IPC: 2.78355 cumulative IPC: 2.78355 (Simulation time: 0 hr 2 min 43 sec) 
Heartbeat CPU 0 instructions: 20000003 cycles: 7057004 heartbeat IPC: 2.88644 cumulative IPC: 2.83406 (Simulation time: 0 hr 5 min 19 sec) 
Heartbeat CPU 0 instructions: 30000000 cycles: 10647697 heartbeat IPC: 2.78498 cumulative IPC: 2.81751 (Simulation time: 0 hr 8 min 1 sec) 
Heartbeat CPU 0 instructions: 40000003 cycles: 14328312 heartbeat IPC: 2.71694 cumulative IPC: 2.79168 (Simulation time: 0 hr 10 min 49 sec) 
Heartbeat CPU 0 instructions: 50000001 cycles: 17847455 heartbeat IPC: 2.8416 cumulative IPC: 2.80152 (Simulation time: 0 hr 13 min 35 sec) 

Warmup complete CPU 0 instructions: 50000001 cycles: 17847455 (Simulation time: 0 hr 13 min 35 sec) 

Heartbeat CPU 0 instructions: 60000002 cycles: 25865872 heartbeat IPC: 1.24713 cumulative IPC: 1.24713 (Simulation time: 0 hr 15 min 49 sec) 
Heartbeat CPU 0 instructions: 70000001 cycles: 33881099 heartbeat IPC: 1.24763 cumulative IPC: 1.24738 (Simulation time: 0 hr 18 min 9 sec) 
Heartbeat CPU 0 instructions: 80000002 cycles: 42902610 heartbeat IPC: 1.10846 cumulative IPC: 1.19736 (Simulation time: 0 hr 20 min 16 sec) 
Heartbeat CPU 0 instructions: 90000000 cycles: 51215329 heartbeat IPC: 1.20298 cumulative IPC: 1.19876 (Simulation time: 0 hr 22 min 23 sec) 
Heartbeat CPU 0 instructions: 100000001 cycles: 59382783 heartbeat IPC: 1.22437 cumulative IPC: 1.20379 (Simulation time: 0 hr 24 min 28 sec) 
Finished CPU 0 instructions: 50000000 cycles: 41535328 cumulative IPC: 1.20379 (Simulation time: 0 hr 24 min 28 sec) 

ChampSim completed all CPUs

Region of Interest Statistics

CPU 0 cumulative IPC: 1.20379 instructions: 50000000 cycles: 41535328
L1D TOTAL     ACCESS:   21959710  HIT:   21070761  MISS:     888949
L1D LOAD      ACCESS:    8720372  HIT:    8324568  MISS:     395804
L1D RFO       ACCESS:    4812346  HIT:    4690977  MISS:     121369
L1D PREFETCH  ACCESS:    8426992  HIT:    8055216  MISS:     371776
L1D WRITEBACK ACCESS:          0  HIT:          0  MISS:          0
L1D PREFETCH  REQUESTED:    8759680  ISSUED:    8600041  USEFUL:     133258  USELESS:     238526
L1D AVERAGE MISS LATENCY: 29.4364 cycles
L1I TOTAL     ACCESS:   14017856  HIT:   12951241  MISS:    1066615
L1I LOAD      ACCESS:    9398291  HIT:    9256428  MISS:     141863
L1I RFO       ACCESS:          0  HIT:          0  MISS:          0
L1I PREFETCH  ACCESS:    4619565  HIT:    3694813  MISS:     924752
L1I WRITEBACK ACCESS:          0  HIT:          0  MISS:          0
L1I PREFETCH  REQUESTED:    5036436  ISSUED:    4949192  USEFUL:     515651  USELESS:     409149
L1I AVERAGE MISS LATENCY: 22.04 cycles
L2C TOTAL     ACCESS:    2913026  HIT:    2616504  MISS:     296522
L2C LOAD      ACCESS:     503094  HIT:     413934  MISS:      89160
L2C RFO       ACCESS:     117372  HIT:      45000  MISS:      72372
L2C PREFETCH  ACCESS:    2070551  HIT:    1936150  MISS:     134401
L2C WRITEBACK ACCESS:     222009  HIT:     221420  MISS:        589
L2C PREFETCH  REQUESTED:    1592255  ISSUED:    1591526  USEFUL:      28748  USELESS:     105147
L2C AVERAGE MISS LATENCY: 75.4584 cycles
LLC TOTAL     ACCESS:     694515  HIT:     566474  MISS:     128041
LLC LOAD      ACCESS:      89143  HIT:      59481  MISS:      29662
LLC RFO       ACCESS:      72372  HIT:      42076  MISS:      30296
LLC PREFETCH  ACCESS:     432241  HIT:     364383  MISS:      67858
LLC WRITEBACK ACCESS:     100759  HIT:     100534  MISS:        225
LLC PREFETCH  REQUESTED:          0  ISSUED:          0  USEFUL:      25435  USELESS:      45378
LLC AVERAGE MISS LATENCY: 166.313 cycles
Major fault: 0 Minor fault: 3983
CPU 0 L1D next line prefetcher final stats

DRAM Statistics
 CHANNEL 0
 RQ ROW_BUFFER_HIT:      30593  ROW_BUFFER_MISS:      97212
 DBUS_CONGESTED:      53712
 WQ ROW_BUFFER_HIT:       9902  ROW_BUFFER_MISS:      32523  FULL:          0

 AVG_CONGESTED_CYCLE: 6

CPU 0 Branch Prediction Accuracy: 94.1242% MPKI: 11.6089 Average ROB Occupancy at Mispredict: 55.5894

Branch types
NOT_BRANCH: 40121075 80.2421%
BRANCH_DIRECT_JUMP: 644555 1.28911%
BRANCH_INDIRECT: 201946 0.403892%
BRANCH_CONDITIONAL: 7003556 14.0071%
BRANCH_DIRECT_CALL: 564821 1.12964%
BRANCH_INDIRECT_CALL: 445012 0.890024%
BRANCH_RETURN: 1018716 2.03743%
BRANCH_OTHER: 0 0%

