Initialize SIGNATURE TABLE
ST_SET: 1
ST_WAY: 256
ST_TAG_BIT: 16
ST_TAG_MASK: ffff

Initialize PATTERN TABLE
PT_SET: 512
PT_WAY: 4
SIG_DELTA_BIT: 7
C_SIG_BIT: 4
C_DELTA_BIT: 4

Initialize PREFETCH FILTER
FILTER_SET: 1024

*** ChampSim Multicore Out-of-Order Simulator ***

Warmup Instructions: 50000000
Simulation Instructions: 50000000
Number of CPUs: 1
LLC sets: 2048
LLC ways: 16
Off-chip DRAM Size: 4096 MB Channels: 1 Width: 64-bit Data Rate: 3200 MT/s

CPU 0 runs /home/ChampSim-master//dpc3_traces/client_005.champsimtrace.xz
L1I D-JOLT instruction prefetcher has been constructed!
CPU 0 L1D next line prefetcher
Heartbeat CPU 0 instructions: 10000001 cycles: 3291531 heartbeat IPC: 3.0381 cumulative IPC: 3.0381 (Simulation time: 0 hr 2 min 38 sec) 
Heartbeat CPU 0 instructions: 20000002 cycles: 6697864 heartbeat IPC: 2.93571 cumulative IPC: 2.98603 (Simulation time: 0 hr 5 min 26 sec) 
Heartbeat CPU 0 instructions: 30000001 cycles: 10391213 heartbeat IPC: 2.70757 cumulative IPC: 2.88705 (Simulation time: 0 hr 8 min 37 sec) 
Heartbeat CPU 0 instructions: 40000000 cycles: 14069143 heartbeat IPC: 2.71892 cumulative IPC: 2.8431 (Simulation time: 0 hr 12 min 0 sec) 
Heartbeat CPU 0 instructions: 50000001 cycles: 17342820 heartbeat IPC: 3.05467 cumulative IPC: 2.88304 (Simulation time: 0 hr 15 min 3 sec) 

Warmup complete CPU 0 instructions: 50000001 cycles: 17342820 (Simulation time: 0 hr 15 min 3 sec) 

Heartbeat CPU 0 instructions: 60000002 cycles: 25336775 heartbeat IPC: 1.25095 cumulative IPC: 1.25095 (Simulation time: 0 hr 17 min 35 sec) 
Heartbeat CPU 0 instructions: 70000003 cycles: 32752435 heartbeat IPC: 1.3485 cumulative IPC: 1.29789 (Simulation time: 0 hr 20 min 18 sec) 
Heartbeat CPU 0 instructions: 80000001 cycles: 39627987 heartbeat IPC: 1.45443 cumulative IPC: 1.34619 (Simulation time: 0 hr 23 min 18 sec) 
Heartbeat CPU 0 instructions: 90000002 cycles: 49180541 heartbeat IPC: 1.04684 cumulative IPC: 1.25637 (Simulation time: 0 hr 26 min 6 sec) 
Heartbeat CPU 0 instructions: 100000002 cycles: 56985388 heartbeat IPC: 1.28126 cumulative IPC: 1.26127 (Simulation time: 0 hr 27 min 24 sec) 
Finished CPU 0 instructions: 50000001 cycles: 39642568 cumulative IPC: 1.26127 (Simulation time: 0 hr 27 min 24 sec) 

ChampSim completed all CPUs

Region of Interest Statistics

CPU 0 cumulative IPC: 1.26127 instructions: 50000001 cycles: 39642568
L1D TOTAL     ACCESS:   19652325  HIT:   19116569  MISS:     535756
L1D LOAD      ACCESS:    6656808  HIT:    6485145  MISS:     171663
L1D RFO       ACCESS:    6791637  HIT:    6606997  MISS:     184640
L1D PREFETCH  ACCESS:    6203880  HIT:    6024427  MISS:     179453
L1D WRITEBACK ACCESS:          0  HIT:          0  MISS:          0
L1D PREFETCH  REQUESTED:    6680651  ISSUED:    6310672  USEFUL:      59381  USELESS:     119960
L1D AVERAGE MISS LATENCY: 94.6355 cycles
L1I TOTAL     ACCESS:   18919982  HIT:   15898603  MISS:    3021379
L1I LOAD      ACCESS:    9386416  HIT:    9228642  MISS:     157774
L1I RFO       ACCESS:          0  HIT:          0  MISS:          0
L1I PREFETCH  ACCESS:    9533566  HIT:    6669961  MISS:    2863605
L1I WRITEBACK ACCESS:          0  HIT:          0  MISS:          0
L1I PREFETCH  REQUESTED:   10415836  ISSUED:    9764849  USEFUL:    1093235  USELESS:    1770282
L1I AVERAGE MISS LATENCY: 16.4369 cycles
L2C TOTAL     ACCESS:    5091663  HIT:    4694083  MISS:     397580
L2C LOAD      ACCESS:     304490  HIT:     204713  MISS:      99777
L2C RFO       ACCESS:     180892  HIT:      31270  MISS:     149622
L2C PREFETCH  ACCESS:    4353228  HIT:    4206376  MISS:     146852
L2C WRITEBACK ACCESS:     253053  HIT:     251724  MISS:       1329
L2C PREFETCH  REQUESTED:    2478316  ISSUED:    2478098  USEFUL:      19931  USELESS:     126012
L2C AVERAGE MISS LATENCY: 124.871 cycles
LLC TOTAL     ACCESS:     979074  HIT:     679558  MISS:     299516
LLC LOAD      ACCESS:      99768  HIT:      52475  MISS:      47293
LLC RFO       ACCESS:     149619  HIT:      16197  MISS:     133422
LLC PREFETCH  ACCESS:     529364  HIT:     411388  MISS:     117976
LLC WRITEBACK ACCESS:     200323  HIT:     199498  MISS:        825
LLC PREFETCH  REQUESTED:          0  ISSUED:          0  USEFUL:      27006  USELESS:      89392
LLC AVERAGE MISS LATENCY: 166.586 cycles
Major fault: 0 Minor fault: 6090
CPU 0 L1D next line prefetcher final stats

DRAM Statistics
 CHANNEL 0
 RQ ROW_BUFFER_HIT:      94529  ROW_BUFFER_MISS:     204152
 DBUS_CONGESTED:     232352
 WQ ROW_BUFFER_HIT:      53838  ROW_BUFFER_MISS:     128856  FULL:          0

 AVG_CONGESTED_CYCLE: 6

CPU 0 Branch Prediction Accuracy: 97.8666% MPKI: 3.9013 Average ROB Occupancy at Mispredict: 86.4103

Branch types
NOT_BRANCH: 40856327 81.7127%
BRANCH_DIRECT_JUMP: 484667 0.969334%
BRANCH_INDIRECT: 85086 0.170172%
BRANCH_CONDITIONAL: 6230887 12.4618%
BRANCH_DIRECT_CALL: 1028917 2.05783%
BRANCH_INDIRECT_CALL: 141825 0.28365%
BRANCH_RETURN: 1171985 2.34397%
BRANCH_OTHER: 0 0%

