Initialize SIGNATURE TABLE
ST_SET: 1
ST_WAY: 256
ST_TAG_BIT: 16
ST_TAG_MASK: ffff

Initialize PATTERN TABLE
PT_SET: 512
PT_WAY: 4
SIG_DELTA_BIT: 7
C_SIG_BIT: 4
C_DELTA_BIT: 4

Initialize PREFETCH FILTER
FILTER_SET: 1024

*** ChampSim Multicore Out-of-Order Simulator ***

Warmup Instructions: 50000000
Simulation Instructions: 50000000
Number of CPUs: 1
LLC sets: 2048
LLC ways: 16
Off-chip DRAM Size: 4096 MB Channels: 1 Width: 64-bit Data Rate: 3200 MT/s

CPU 0 runs /home/ChampSim-master//dpc3_traces/client_004.champsimtrace.xz
L1I D-JOLT instruction prefetcher has been constructed!
CPU 0 L1D next line prefetcher
Heartbeat CPU 0 instructions: 10000000 cycles: 3592549 heartbeat IPC: 2.78354 cumulative IPC: 2.78354 (Simulation time: 0 hr 2 min 56 sec) 
Heartbeat CPU 0 instructions: 20000003 cycles: 7056983 heartbeat IPC: 2.88648 cumulative IPC: 2.83407 (Simulation time: 0 hr 5 min 45 sec) 
Heartbeat CPU 0 instructions: 30000000 cycles: 10647721 heartbeat IPC: 2.78494 cumulative IPC: 2.8175 (Simulation time: 0 hr 8 min 44 sec) 
Heartbeat CPU 0 instructions: 40000003 cycles: 14328186 heartbeat IPC: 2.71705 cumulative IPC: 2.7917 (Simulation time: 0 hr 11 min 53 sec) 
Heartbeat CPU 0 instructions: 50000001 cycles: 17847512 heartbeat IPC: 2.84145 cumulative IPC: 2.80151 (Simulation time: 0 hr 14 min 45 sec) 

Warmup complete CPU 0 instructions: 50000001 cycles: 17847512 (Simulation time: 0 hr 14 min 45 sec) 

Heartbeat CPU 0 instructions: 60000002 cycles: 25854737 heartbeat IPC: 1.24887 cumulative IPC: 1.24887 (Simulation time: 0 hr 17 min 3 sec) 
Heartbeat CPU 0 instructions: 70000001 cycles: 33887765 heartbeat IPC: 1.24486 cumulative IPC: 1.24686 (Simulation time: 0 hr 19 min 29 sec) 
Heartbeat CPU 0 instructions: 80000002 cycles: 42917532 heartbeat IPC: 1.10745 cumulative IPC: 1.19665 (Simulation time: 0 hr 21 min 40 sec) 
Heartbeat CPU 0 instructions: 90000000 cycles: 51250782 heartbeat IPC: 1.20001 cumulative IPC: 1.19749 (Simulation time: 0 hr 23 min 56 sec) 
Heartbeat CPU 0 instructions: 100000001 cycles: 59420562 heartbeat IPC: 1.22402 cumulative IPC: 1.2027 (Simulation time: 0 hr 26 min 15 sec) 
Finished CPU 0 instructions: 50000000 cycles: 41573050 cumulative IPC: 1.2027 (Simulation time: 0 hr 26 min 15 sec) 

ChampSim completed all CPUs

Region of Interest Statistics

CPU 0 cumulative IPC: 1.2027 instructions: 50000000 cycles: 41573050
L1D TOTAL     ACCESS:   21964439  HIT:   21075434  MISS:     889005
L1D LOAD      ACCESS:    8722890  HIT:    8327099  MISS:     395791
L1D RFO       ACCESS:    4811898  HIT:    4690492  MISS:     121406
L1D PREFETCH  ACCESS:    8429651  HIT:    8057843  MISS:     371808
L1D WRITEBACK ACCESS:          0  HIT:          0  MISS:          0
L1D PREFETCH  REQUESTED:    8762246  ISSUED:    8602731  USEFUL:     133277  USELESS:     238539
L1D AVERAGE MISS LATENCY: 29.4416 cycles
L1I TOTAL     ACCESS:   13828442  HIT:   12744678  MISS:    1083764
L1I LOAD      ACCESS:    9399695  HIT:    9253694  MISS:     146001
L1I RFO       ACCESS:          0  HIT:          0  MISS:          0
L1I PREFETCH  ACCESS:    4428747  HIT:    3490984  MISS:     937763
L1I WRITEBACK ACCESS:          0  HIT:          0  MISS:          0
L1I PREFETCH  REQUESTED:    4941002  ISSUED:    4801746  USEFUL:     518152  USELESS:     419669
L1I AVERAGE MISS LATENCY: 22.001 cycles
L2C TOTAL     ACCESS:    2948769  HIT:    2651713  MISS:     297056
L2C LOAD      ACCESS:     516752  HIT:     426176  MISS:      90576
L2C RFO       ACCESS:     117387  HIT:      44725  MISS:      72662
L2C PREFETCH  ACCESS:    2092593  HIT:    1959548  MISS:     133045
L2C WRITEBACK ACCESS:     222037  HIT:     221264  MISS:        773
L2C PREFETCH  REQUESTED:    1644197  ISSUED:    1643470  USEFUL:      29738  USELESS:     102786
L2C AVERAGE MISS LATENCY: 74.9685 cycles
LLC TOTAL     ACCESS:     707871  HIT:     578544  MISS:     129327
LLC LOAD      ACCESS:      90557  HIT:      61314  MISS:      29243
LLC RFO       ACCESS:      72662  HIT:      42283  MISS:      30379
LLC PREFETCH  ACCESS:     443067  HIT:     373583  MISS:      69484
LLC WRITEBACK ACCESS:     101585  HIT:     101364  MISS:        221
LLC PREFETCH  REQUESTED:          0  ISSUED:          0  USEFUL:      26067  USELESS:      45714
LLC AVERAGE MISS LATENCY: 166.083 cycles
Major fault: 0 Minor fault: 3982
CPU 0 L1D next line prefetcher final stats

DRAM Statistics
 CHANNEL 0
 RQ ROW_BUFFER_HIT:      30822  ROW_BUFFER_MISS:      98271
 DBUS_CONGESTED:      54178
 WQ ROW_BUFFER_HIT:      10157  ROW_BUFFER_MISS:      33081  FULL:          0

 AVG_CONGESTED_CYCLE: 6

CPU 0 Branch Prediction Accuracy: 94.1242% MPKI: 11.6089 Average ROB Occupancy at Mispredict: 55.4507

Branch types
NOT_BRANCH: 40121080 80.2422%
BRANCH_DIRECT_JUMP: 644555 1.28911%
BRANCH_INDIRECT: 201946 0.403892%
BRANCH_CONDITIONAL: 7003557 14.0071%
BRANCH_DIRECT_CALL: 564821 1.12964%
BRANCH_INDIRECT_CALL: 445012 0.890024%
BRANCH_RETURN: 1018716 2.03743%
BRANCH_OTHER: 0 0%

