Initialize SIGNATURE TABLE
ST_SET: 1
ST_WAY: 256
ST_TAG_BIT: 16
ST_TAG_MASK: ffff

Initialize PATTERN TABLE
PT_SET: 512
PT_WAY: 4
SIG_DELTA_BIT: 7
C_SIG_BIT: 4
C_DELTA_BIT: 4

Initialize PREFETCH FILTER
FILTER_SET: 1024

*** ChampSim Multicore Out-of-Order Simulator ***

Warmup Instructions: 50000000
Simulation Instructions: 50000000
Number of CPUs: 1
LLC sets: 2048
LLC ways: 16
Off-chip DRAM Size: 4096 MB Channels: 1 Width: 64-bit Data Rate: 3200 MT/s

CPU 0 runs /home/ChampSim-master//dpc3_traces/client_004.champsimtrace.xz
CPU 0 EPI prefetcher
CPU 0 L1D next line prefetcher
Heartbeat CPU 0 instructions: 10000000 cycles: 3593052 heartbeat IPC: 2.78315 cumulative IPC: 2.78315 (Simulation time: 0 hr 3 min 33 sec) 
Heartbeat CPU 0 instructions: 20000003 cycles: 7057541 heartbeat IPC: 2.88643 cumulative IPC: 2.83385 (Simulation time: 0 hr 6 min 37 sec) 
Heartbeat CPU 0 instructions: 30000000 cycles: 10648494 heartbeat IPC: 2.78478 cumulative IPC: 2.8173 (Simulation time: 0 hr 10 min 0 sec) 
Heartbeat CPU 0 instructions: 40000003 cycles: 14329289 heartbeat IPC: 2.71681 cumulative IPC: 2.79149 (Simulation time: 0 hr 13 min 36 sec) 
Heartbeat CPU 0 instructions: 50000001 cycles: 17847780 heartbeat IPC: 2.84213 cumulative IPC: 2.80147 (Simulation time: 0 hr 17 min 27 sec) 

Warmup complete CPU 0 instructions: 50000001 cycles: 17847780 (Simulation time: 0 hr 17 min 27 sec) 

Heartbeat CPU 0 instructions: 60000002 cycles: 25664988 heartbeat IPC: 1.27923 cumulative IPC: 1.27923 (Simulation time: 0 hr 19 min 52 sec) 
Heartbeat CPU 0 instructions: 70000001 cycles: 33467260 heartbeat IPC: 1.28168 cumulative IPC: 1.28045 (Simulation time: 0 hr 22 min 33 sec) 
Heartbeat CPU 0 instructions: 80000002 cycles: 42057608 heartbeat IPC: 1.1641 cumulative IPC: 1.23917 (Simulation time: 0 hr 24 min 58 sec) 
Heartbeat CPU 0 instructions: 90000000 cycles: 50131554 heartbeat IPC: 1.23855 cumulative IPC: 1.23901 (Simulation time: 0 hr 27 min 20 sec) 
Heartbeat CPU 0 instructions: 100000000 cycles: 57954765 heartbeat IPC: 1.27825 cumulative IPC: 1.24667 (Simulation time: 0 hr 29 min 14 sec) 
Finished CPU 0 instructions: 50000000 cycles: 40106986 cumulative IPC: 1.24667 (Simulation time: 0 hr 29 min 14 sec) 

ChampSim completed all CPUs

Region of Interest Statistics

CPU 0 cumulative IPC: 1.24667 instructions: 50000000 cycles: 40106986
L1D TOTAL     ACCESS:   21903180  HIT:   21014240  MISS:     888940
L1D LOAD      ACCESS:    8693293  HIT:    8297083  MISS:     396210
L1D RFO       ACCESS:    4810109  HIT:    4688718  MISS:     121391
L1D PREFETCH  ACCESS:    8399778  HIT:    8028439  MISS:     371339
L1D WRITEBACK ACCESS:          0  HIT:          0  MISS:          0
L1D PREFETCH  REQUESTED:    8732784  ISSUED:    8573146  USEFUL:     132852  USELESS:     238495
L1D AVERAGE MISS LATENCY: 29.7101 cycles
L1I TOTAL     ACCESS:   30644861  HIT:   29747389  MISS:     897472
L1I LOAD      ACCESS:    9381258  HIT:    9301075  MISS:      80183
L1I RFO       ACCESS:          0  HIT:          0  MISS:          0
L1I PREFETCH  ACCESS:   21263603  HIT:   20446314  MISS:     817289
L1I WRITEBACK ACCESS:          0  HIT:          0  MISS:          0
L1I PREFETCH  REQUESTED:   26087844  ISSUED:   26087844  USEFUL:     533354  USELESS:     283958
L1I AVERAGE MISS LATENCY: 24.1879 cycles
L2C TOTAL     ACCESS:    2651326  HIT:    2359381  MISS:     291945
L2C LOAD      ACCESS:     438356  HIT:     368293  MISS:      70063
L2C RFO       ACCESS:     117402  HIT:      45300  MISS:      72102
L2C PREFETCH  ACCESS:    1873552  HIT:    1724484  MISS:     149068
L2C WRITEBACK ACCESS:     222016  HIT:     221304  MISS:        712
L2C PREFETCH  REQUESTED:    1802554  ISSUED:    1801837  USEFUL:      22451  USELESS:     125529
L2C AVERAGE MISS LATENCY: 80.6572 cycles
LLC TOTAL     ACCESS:     727116  HIT:     597719  MISS:     129397
LLC LOAD      ACCESS:      70031  HIT:      47269  MISS:      22762
LLC RFO       ACCESS:      72099  HIT:      41475  MISS:      30624
LLC PREFETCH  ACCESS:     484322  HIT:     408562  MISS:      75760
LLC WRITEBACK ACCESS:     100664  HIT:     100413  MISS:        251
LLC PREFETCH  REQUESTED:          0  ISSUED:          0  USEFUL:      25113  USELESS:      50333
LLC AVERAGE MISS LATENCY: 178.428 cycles
Major fault: 0 Minor fault: 3977
CPU 0 L1I EPI prefetcher final stats
CPU 0 L1D next line prefetcher final stats

DRAM Statistics
 CHANNEL 0
 RQ ROW_BUFFER_HIT:      32799  ROW_BUFFER_MISS:      96337
 DBUS_CONGESTED:      60126
 WQ ROW_BUFFER_HIT:       8898  ROW_BUFFER_MISS:      35075  FULL:          0

 AVG_CONGESTED_CYCLE: 6

CPU 0 Branch Prediction Accuracy: 94.1242% MPKI: 11.6089 Average ROB Occupancy at Mispredict: 57.3854

Branch types
NOT_BRANCH: 40121057 80.2421%
BRANCH_DIRECT_JUMP: 644555 1.28911%
BRANCH_INDIRECT: 201946 0.403892%
BRANCH_CONDITIONAL: 7003556 14.0071%
BRANCH_DIRECT_CALL: 564820 1.12964%
BRANCH_INDIRECT_CALL: 445012 0.890024%
BRANCH_RETURN: 1018716 2.03743%
BRANCH_OTHER: 0 0%

