Initialize SIGNATURE TABLE
ST_SET: 1
ST_WAY: 256
ST_TAG_BIT: 16
ST_TAG_MASK: ffff

Initialize PATTERN TABLE
PT_SET: 512
PT_WAY: 4
SIG_DELTA_BIT: 7
C_SIG_BIT: 4
C_DELTA_BIT: 4

Initialize PREFETCH FILTER
FILTER_SET: 1024

*** ChampSim Multicore Out-of-Order Simulator ***

Warmup Instructions: 50000000
Simulation Instructions: 50000000
Number of CPUs: 1
LLC sets: 2048
LLC ways: 16
Off-chip DRAM Size: 4096 MB Channels: 1 Width: 64-bit Data Rate: 3200 MT/s

CPU 0 runs /home/ChampSim-master//dpc3_traces/client_007.champsimtrace.xz
CPU 0 EPI prefetcher
CPU 0 L1D next line prefetcher
Heartbeat CPU 0 instructions: 10000001 cycles: 3641660 heartbeat IPC: 2.746 cumulative IPC: 2.746 (Simulation time: 0 hr 2 min 55 sec) 
Heartbeat CPU 0 instructions: 20000003 cycles: 7032896 heartbeat IPC: 2.94878 cumulative IPC: 2.84378 (Simulation time: 0 hr 5 min 35 sec) 
Heartbeat CPU 0 instructions: 30000000 cycles: 10904000 heartbeat IPC: 2.58324 cumulative IPC: 2.75128 (Simulation time: 0 hr 8 min 41 sec) 
Heartbeat CPU 0 instructions: 40000003 cycles: 15063979 heartbeat IPC: 2.40386 cumulative IPC: 2.65534 (Simulation time: 0 hr 11 min 39 sec) 
Heartbeat CPU 0 instructions: 50000002 cycles: 18468326 heartbeat IPC: 2.93742 cumulative IPC: 2.70734 (Simulation time: 0 hr 14 min 21 sec) 

Warmup complete CPU 0 instructions: 50000002 cycles: 18468326 (Simulation time: 0 hr 14 min 21 sec) 

Heartbeat CPU 0 instructions: 60000003 cycles: 25343891 heartbeat IPC: 1.45443 cumulative IPC: 1.45443 (Simulation time: 0 hr 17 min 10 sec) 
Heartbeat CPU 0 instructions: 70000003 cycles: 34180758 heartbeat IPC: 1.13162 cumulative IPC: 1.27288 (Simulation time: 0 hr 20 min 9 sec) 
Heartbeat CPU 0 instructions: 80000002 cycles: 39491380 heartbeat IPC: 1.88302 cumulative IPC: 1.427 (Simulation time: 0 hr 22 min 1 sec) 
Heartbeat CPU 0 instructions: 90000002 cycles: 47079112 heartbeat IPC: 1.31792 cumulative IPC: 1.39807 (Simulation time: 0 hr 24 min 36 sec) 
Heartbeat CPU 0 instructions: 100000002 cycles: 56014628 heartbeat IPC: 1.11913 cumulative IPC: 1.33169 (Simulation time: 0 hr 26 min 38 sec) 
Finished CPU 0 instructions: 50000000 cycles: 37546302 cumulative IPC: 1.33169 (Simulation time: 0 hr 26 min 38 sec) 

ChampSim completed all CPUs

Region of Interest Statistics

CPU 0 cumulative IPC: 1.33169 instructions: 50000000 cycles: 37546302
L1D TOTAL     ACCESS:   21191522  HIT:   20022440  MISS:    1169082
L1D LOAD      ACCESS:    8366315  HIT:    7827036  MISS:     539279
L1D RFO       ACCESS:    4868746  HIT:    4777698  MISS:      91048
L1D PREFETCH  ACCESS:    7956461  HIT:    7417706  MISS:     538755
L1D WRITEBACK ACCESS:          0  HIT:          0  MISS:          0
L1D PREFETCH  REQUESTED:    8419040  ISSUED:    8174862  USEFUL:     158253  USELESS:     380517
L1D AVERAGE MISS LATENCY: 34.4923 cycles
L1I TOTAL     ACCESS:   26885366  HIT:   25876978  MISS:    1008388
L1I LOAD      ACCESS:    9120944  HIT:    9109242  MISS:      11702
L1I RFO       ACCESS:          0  HIT:          0  MISS:          0
L1I PREFETCH  ACCESS:   17764422  HIT:   16767736  MISS:     996686
L1I WRITEBACK ACCESS:          0  HIT:          0  MISS:          0
L1I PREFETCH  REQUESTED:   20856013  ISSUED:   20856013  USEFUL:     834639  USELESS:     162066
L1I AVERAGE MISS LATENCY: 16.8013 cycles
L2C TOTAL     ACCESS:    3124552  HIT:    2918006  MISS:     206546
L2C LOAD      ACCESS:     520425  HIT:     451042  MISS:      69383
L2C RFO       ACCESS:      89517  HIT:      47944  MISS:      41573
L2C PREFETCH  ACCESS:    2186918  HIT:    2091445  MISS:      95473
L2C WRITEBACK ACCESS:     327692  HIT:     327575  MISS:        117
L2C PREFETCH  REQUESTED:    2484543  ISSUED:    2478424  USEFUL:       9014  USELESS:      86089
L2C AVERAGE MISS LATENCY: 125.523 cycles
LLC TOTAL     ACCESS:     957723  HIT:     789173  MISS:     168550
LLC LOAD      ACCESS:      69291  HIT:      34506  MISS:      34785
LLC RFO       ACCESS:      41572  HIT:       7167  MISS:      34405
LLC PREFETCH  ACCESS:     772409  HIT:     673372  MISS:      99037
LLC WRITEBACK ACCESS:      74451  HIT:      74128  MISS:        323
LLC PREFETCH  REQUESTED:          0  ISSUED:          0  USEFUL:      18833  USELESS:      80527
LLC AVERAGE MISS LATENCY: 183.376 cycles
Major fault: 0 Minor fault: 4405
CPU 0 L1I EPI prefetcher final stats
CPU 0 L1D next line prefetcher final stats

DRAM Statistics
 CHANNEL 0
 RQ ROW_BUFFER_HIT:      35651  ROW_BUFFER_MISS:     132571
 DBUS_CONGESTED:      93890
 WQ ROW_BUFFER_HIT:      13014  ROW_BUFFER_MISS:      45582  FULL:          0

 AVG_CONGESTED_CYCLE: 5

CPU 0 Branch Prediction Accuracy: 98.8607% MPKI: 1.8623 Average ROB Occupancy at Mispredict: 113.825

Branch types
NOT_BRANCH: 41826773 83.6535%
BRANCH_DIRECT_JUMP: 735330 1.47066%
BRANCH_INDIRECT: 269194 0.538388%
BRANCH_CONDITIONAL: 5957947 11.9159%
BRANCH_DIRECT_CALL: 368758 0.737516%
BRANCH_INDIRECT_CALL: 226975 0.45395%
BRANCH_RETURN: 614696 1.22939%
BRANCH_OTHER: 0 0%

