Initialize SIGNATURE TABLE
ST_SET: 1
ST_WAY: 256
ST_TAG_BIT: 16
ST_TAG_MASK: ffff

Initialize PATTERN TABLE
PT_SET: 512
PT_WAY: 4
SIG_DELTA_BIT: 7
C_SIG_BIT: 4
C_DELTA_BIT: 4

Initialize PREFETCH FILTER
FILTER_SET: 1024

*** ChampSim Multicore Out-of-Order Simulator ***

Warmup Instructions: 50000000
Simulation Instructions: 50000000
Number of CPUs: 1
LLC sets: 2048
LLC ways: 16
Off-chip DRAM Size: 4096 MB Channels: 1 Width: 64-bit Data Rate: 3200 MT/s

CPU 0 runs /home/ChampSim-master//dpc3_traces/client_005.champsimtrace.xz
L1I D-JOLT instruction prefetcher has been constructed!
CPU 0 L1D next line prefetcher
Heartbeat CPU 0 instructions: 10000001 cycles: 3291537 heartbeat IPC: 3.03809 cumulative IPC: 3.03809 (Simulation time: 0 hr 2 min 43 sec) 
Heartbeat CPU 0 instructions: 20000002 cycles: 6698108 heartbeat IPC: 2.9355 cumulative IPC: 2.98592 (Simulation time: 0 hr 5 min 31 sec) 
Heartbeat CPU 0 instructions: 30000001 cycles: 10391465 heartbeat IPC: 2.70756 cumulative IPC: 2.88698 (Simulation time: 0 hr 8 min 22 sec) 
Heartbeat CPU 0 instructions: 40000000 cycles: 14069381 heartbeat IPC: 2.71893 cumulative IPC: 2.84305 (Simulation time: 0 hr 11 min 25 sec) 
Heartbeat CPU 0 instructions: 50000001 cycles: 17342839 heartbeat IPC: 3.05487 cumulative IPC: 2.88303 (Simulation time: 0 hr 14 min 23 sec) 

Warmup complete CPU 0 instructions: 50000001 cycles: 17342839 (Simulation time: 0 hr 14 min 23 sec) 

Heartbeat CPU 0 instructions: 60000002 cycles: 25380897 heartbeat IPC: 1.24408 cumulative IPC: 1.24408 (Simulation time: 0 hr 16 min 45 sec) 
Heartbeat CPU 0 instructions: 70000003 cycles: 32812719 heartbeat IPC: 1.34557 cumulative IPC: 1.29283 (Simulation time: 0 hr 19 min 9 sec) 
Heartbeat CPU 0 instructions: 80000001 cycles: 39705811 heartbeat IPC: 1.45073 cumulative IPC: 1.3415 (Simulation time: 0 hr 21 min 44 sec) 
Heartbeat CPU 0 instructions: 90000002 cycles: 49277244 heartbeat IPC: 1.04478 cumulative IPC: 1.25257 (Simulation time: 0 hr 24 min 28 sec) 
Heartbeat CPU 0 instructions: 100000002 cycles: 57124416 heartbeat IPC: 1.27434 cumulative IPC: 1.25686 (Simulation time: 0 hr 26 min 1 sec) 
Finished CPU 0 instructions: 50000001 cycles: 39781577 cumulative IPC: 1.25686 (Simulation time: 0 hr 26 min 1 sec) 

ChampSim completed all CPUs

Region of Interest Statistics

CPU 0 cumulative IPC: 1.25686 instructions: 50000001 cycles: 39781577
L1D TOTAL     ACCESS:   19663829  HIT:   19127997  MISS:     535832
L1D LOAD      ACCESS:    6661922  HIT:    6490132  MISS:     171790
L1D RFO       ACCESS:    6792279  HIT:    6607687  MISS:     184592
L1D PREFETCH  ACCESS:    6209628  HIT:    6030178  MISS:     179450
L1D WRITEBACK ACCESS:          0  HIT:          0  MISS:          0
L1D PREFETCH  REQUESTED:    6685831  ISSUED:    6316072  USEFUL:      59341  USELESS:     119996
L1D AVERAGE MISS LATENCY: 94.9929 cycles
L1I TOTAL     ACCESS:   18492073  HIT:   15858561  MISS:    2633512
L1I LOAD      ACCESS:    9371361  HIT:    9169179  MISS:     202182
L1I RFO       ACCESS:          0  HIT:          0  MISS:          0
L1I PREFETCH  ACCESS:    9120712  HIT:    6689382  MISS:    2431330
L1I WRITEBACK ACCESS:          0  HIT:          0  MISS:          0
L1I PREFETCH  REQUESTED:    9647808  ISSUED:    9462351  USEFUL:     941249  USELESS:    1490003
L1I AVERAGE MISS LATENCY: 16.3261 cycles
L2C TOTAL     ACCESS:    4431975  HIT:    4030233  MISS:     401742
L2C LOAD      ACCESS:     287327  HIT:     186740  MISS:     100587
L2C RFO       ACCESS:     180823  HIT:      31555  MISS:     149268
L2C PREFETCH  ACCESS:    3710767  HIT:    3560338  MISS:     150429
L2C WRITEBACK ACCESS:     253058  HIT:     251600  MISS:       1458
L2C PREFETCH  REQUESTED:    1966484  ISSUED:    1966360  USEFUL:      19914  USELESS:     129596
L2C AVERAGE MISS LATENCY: 124.311 cycles
LLC TOTAL     ACCESS:     939970  HIT:     640538  MISS:     299432
LLC LOAD      ACCESS:     100577  HIT:      53046  MISS:      47531
LLC RFO       ACCESS:     149266  HIT:      14954  MISS:     134312
LLC PREFETCH  ACCESS:     490067  HIT:     373418  MISS:     116649
LLC WRITEBACK ACCESS:     200060  HIT:     199120  MISS:        940
LLC PREFETCH  REQUESTED:          0  ISSUED:          0  USEFUL:      26251  USELESS:      89262
LLC AVERAGE MISS LATENCY: 166.423 cycles
Major fault: 0 Minor fault: 6089
CPU 0 L1D next line prefetcher final stats

DRAM Statistics
 CHANNEL 0
 RQ ROW_BUFFER_HIT:      94332  ROW_BUFFER_MISS:     204152
 DBUS_CONGESTED:     231739
 WQ ROW_BUFFER_HIT:      53775  ROW_BUFFER_MISS:     129009  FULL:          0

 AVG_CONGESTED_CYCLE: 6

CPU 0 Branch Prediction Accuracy: 97.8666% MPKI: 3.9013 Average ROB Occupancy at Mispredict: 85.5879

Branch types
NOT_BRANCH: 40856330 81.7127%
BRANCH_DIRECT_JUMP: 484667 0.969334%
BRANCH_INDIRECT: 85086 0.170172%
BRANCH_CONDITIONAL: 6230887 12.4618%
BRANCH_DIRECT_CALL: 1028917 2.05783%
BRANCH_INDIRECT_CALL: 141825 0.28365%
BRANCH_RETURN: 1171986 2.34397%
BRANCH_OTHER: 0 0%

