Initialize SIGNATURE TABLE
ST_SET: 1
ST_WAY: 256
ST_TAG_BIT: 16
ST_TAG_MASK: ffff

Initialize PATTERN TABLE
PT_SET: 512
PT_WAY: 4
SIG_DELTA_BIT: 7
C_SIG_BIT: 4
C_DELTA_BIT: 4

Initialize PREFETCH FILTER
FILTER_SET: 1024

*** ChampSim Multicore Out-of-Order Simulator ***

Warmup Instructions: 50000000
Simulation Instructions: 50000000
Number of CPUs: 1
LLC sets: 2048
LLC ways: 16
Off-chip DRAM Size: 4096 MB Channels: 1 Width: 64-bit Data Rate: 3200 MT/s

CPU 0 runs /home/ChampSim-master//dpc3_traces/client_006.champsimtrace.xz
L1I D-JOLT instruction prefetcher has been constructed!
CPU 0 L1D next line prefetcher
Heartbeat CPU 0 instructions: 10000003 cycles: 4267387 heartbeat IPC: 2.34336 cumulative IPC: 2.34336 (Simulation time: 0 hr 3 min 48 sec) 
Heartbeat CPU 0 instructions: 20000000 cycles: 8307449 heartbeat IPC: 2.47521 cumulative IPC: 2.40748 (Simulation time: 0 hr 7 min 35 sec) 
Heartbeat CPU 0 instructions: 30000003 cycles: 11372030 heartbeat IPC: 3.26309 cumulative IPC: 2.63805 (Simulation time: 0 hr 10 min 29 sec) 
Heartbeat CPU 0 instructions: 40000000 cycles: 14718653 heartbeat IPC: 2.98809 cumulative IPC: 2.71764 (Simulation time: 0 hr 13 min 33 sec) 
Heartbeat CPU 0 instructions: 50000003 cycles: 18823761 heartbeat IPC: 2.43599 cumulative IPC: 2.65622 (Simulation time: 0 hr 16 min 16 sec) 

Warmup complete CPU 0 instructions: 50000003 cycles: 18823761 (Simulation time: 0 hr 16 min 16 sec) 

Heartbeat CPU 0 instructions: 60000001 cycles: 26685268 heartbeat IPC: 1.27202 cumulative IPC: 1.27202 (Simulation time: 0 hr 18 min 25 sec) 
Heartbeat CPU 0 instructions: 70000003 cycles: 36418164 heartbeat IPC: 1.02744 cumulative IPC: 1.13673 (Simulation time: 0 hr 20 min 34 sec) 
Heartbeat CPU 0 instructions: 80000002 cycles: 44709395 heartbeat IPC: 1.20609 cumulative IPC: 1.15894 (Simulation time: 0 hr 22 min 38 sec) 
Heartbeat CPU 0 instructions: 90000003 cycles: 52528986 heartbeat IPC: 1.27884 cumulative IPC: 1.18676 (Simulation time: 0 hr 24 min 16 sec) 
Heartbeat CPU 0 instructions: 100000001 cycles: 60684469 heartbeat IPC: 1.22617 cumulative IPC: 1.19444 (Simulation time: 0 hr 25 min 38 sec) 
Finished CPU 0 instructions: 50000002 cycles: 41860709 cumulative IPC: 1.19444 (Simulation time: 0 hr 25 min 38 sec) 

ChampSim completed all CPUs

Region of Interest Statistics

CPU 0 cumulative IPC: 1.19444 instructions: 50000002 cycles: 41860709
L1D TOTAL     ACCESS:   16601436  HIT:   15874347  MISS:     727089
L1D LOAD      ACCESS:    6370652  HIT:    5963607  MISS:     407045
L1D RFO       ACCESS:    4332297  HIT:    4289711  MISS:      42586
L1D PREFETCH  ACCESS:    5898487  HIT:    5621029  MISS:     277458
L1D WRITEBACK ACCESS:          0  HIT:          0  MISS:          0
L1D PREFETCH  REQUESTED:    6412526  ISSUED:    6231650  USEFUL:     116456  USELESS:     160877
L1D AVERAGE MISS LATENCY: 82.0929 cycles
L1I TOTAL     ACCESS:   13890480  HIT:   12536652  MISS:    1353828
L1I LOAD      ACCESS:    8486208  HIT:    8470124  MISS:      16084
L1I RFO       ACCESS:          0  HIT:          0  MISS:          0
L1I PREFETCH  ACCESS:    5404272  HIT:    4066528  MISS:    1337744
L1I WRITEBACK ACCESS:          0  HIT:          0  MISS:          0
L1I PREFETCH  REQUESTED:    5693369  ISSUED:    5535788  USEFUL:     868006  USELESS:     469609
L1I AVERAGE MISS LATENCY: 21.0477 cycles
L2C TOTAL     ACCESS:    2970919  HIT:    2416742  MISS:     554177
L2C LOAD      ACCESS:     351729  HIT:     112705  MISS:     239024
L2C RFO       ACCESS:      42325  HIT:      12291  MISS:      30034
L2C PREFETCH  ACCESS:    2400894  HIT:    2116536  MISS:     284358
L2C WRITEBACK ACCESS:     175971  HIT:     175210  MISS:        761
L2C PREFETCH  REQUESTED:    3073859  ISSUED:    3049986  USEFUL:      10965  USELESS:     274417
L2C AVERAGE MISS LATENCY: 115.588 cycles
LLC TOTAL     ACCESS:    1449052  HIT:    1063807  MISS:     385245
LLC LOAD      ACCESS:     229400  HIT:     136317  MISS:      93083
LLC RFO       ACCESS:      30034  HIT:       5321  MISS:      24713
LLC PREFETCH  ACCESS:    1055025  HIT:     788109  MISS:     266916
LLC WRITEBACK ACCESS:     134593  HIT:     134060  MISS:        533
LLC PREFETCH  REQUESTED:          0  ISSUED:          0  USEFUL:      42326  USELESS:     229101
LLC AVERAGE MISS LATENCY: 200.023 cycles
Major fault: 0 Minor fault: 10538
CPU 0 L1D next line prefetcher final stats

DRAM Statistics
 CHANNEL 0
 RQ ROW_BUFFER_HIT:      99582  ROW_BUFFER_MISS:     285100
 DBUS_CONGESTED:     223507
 WQ ROW_BUFFER_HIT:      21959  ROW_BUFFER_MISS:      92380  FULL:          0

 AVG_CONGESTED_CYCLE: 5

CPU 0 Branch Prediction Accuracy: 98.1683% MPKI: 3.13642 Average ROB Occupancy at Mispredict: 87.6485

Branch types
NOT_BRANCH: 41438060 82.8761%
BRANCH_DIRECT_JUMP: 413829 0.827658%
BRANCH_INDIRECT: 47058 0.094116%
BRANCH_CONDITIONAL: 6843835 13.6877%
BRANCH_DIRECT_CALL: 536885 1.07377%
BRANCH_INDIRECT_CALL: 90642 0.181284%
BRANCH_RETURN: 629329 1.25866%
BRANCH_OTHER: 0 0%

