Initialize SIGNATURE TABLE
ST_SET: 1
ST_WAY: 256
ST_TAG_BIT: 16
ST_TAG_MASK: ffff

Initialize PATTERN TABLE
PT_SET: 512
PT_WAY: 4
SIG_DELTA_BIT: 7
C_SIG_BIT: 4
C_DELTA_BIT: 4

Initialize PREFETCH FILTER
FILTER_SET: 1024

*** ChampSim Multicore Out-of-Order Simulator ***

Warmup Instructions: 50000000
Simulation Instructions: 50000000
Number of CPUs: 1
LLC sets: 2048
LLC ways: 16
Off-chip DRAM Size: 4096 MB Channels: 1 Width: 64-bit Data Rate: 3200 MT/s

CPU 0 runs /home/ChampSim-master//dpc3_traces/client_008.champsimtrace.xz
L1I D-JOLT instruction prefetcher has been constructed!
CPU 0 L1D next line prefetcher
Heartbeat CPU 0 instructions: 10000001 cycles: 3754880 heartbeat IPC: 2.6632 cumulative IPC: 2.6632 (Simulation time: 0 hr 3 min 3 sec) 
Heartbeat CPU 0 instructions: 20000001 cycles: 7531671 heartbeat IPC: 2.64775 cumulative IPC: 2.65545 (Simulation time: 0 hr 6 min 16 sec) 
Heartbeat CPU 0 instructions: 30000000 cycles: 11259392 heartbeat IPC: 2.6826 cumulative IPC: 2.66444 (Simulation time: 0 hr 10 min 4 sec) 
Heartbeat CPU 0 instructions: 40000002 cycles: 15055595 heartbeat IPC: 2.63421 cumulative IPC: 2.65682 (Simulation time: 0 hr 13 min 43 sec) 
Heartbeat CPU 0 instructions: 50000003 cycles: 18848768 heartbeat IPC: 2.63632 cumulative IPC: 2.65269 (Simulation time: 0 hr 16 min 38 sec) 

Warmup complete CPU 0 instructions: 50000003 cycles: 18848768 (Simulation time: 0 hr 16 min 38 sec) 

Heartbeat CPU 0 instructions: 60000000 cycles: 27002960 heartbeat IPC: 1.22636 cumulative IPC: 1.22636 (Simulation time: 0 hr 19 min 26 sec) 
Heartbeat CPU 0 instructions: 70000000 cycles: 34956826 heartbeat IPC: 1.25725 cumulative IPC: 1.24161 (Simulation time: 0 hr 22 min 24 sec) 
Heartbeat CPU 0 instructions: 80000000 cycles: 44069223 heartbeat IPC: 1.09741 cumulative IPC: 1.18951 (Simulation time: 0 hr 24 min 29 sec) 
Heartbeat CPU 0 instructions: 90000001 cycles: 51433474 heartbeat IPC: 1.35791 cumulative IPC: 1.22757 (Simulation time: 0 hr 25 min 47 sec) 
Heartbeat CPU 0 instructions: 100000001 cycles: 59477883 heartbeat IPC: 1.2431 cumulative IPC: 1.23064 (Simulation time: 0 hr 26 min 28 sec) 
Finished CPU 0 instructions: 50000002 cycles: 40629116 cumulative IPC: 1.23064 (Simulation time: 0 hr 26 min 28 sec) 

ChampSim completed all CPUs

Region of Interest Statistics

CPU 0 cumulative IPC: 1.23064 instructions: 50000002 cycles: 40629116
L1D TOTAL     ACCESS:   20477557  HIT:   18849164  MISS:    1628393
L1D LOAD      ACCESS:    8061118  HIT:    7261661  MISS:     799457
L1D RFO       ACCESS:    4813746  HIT:    4704173  MISS:     109573
L1D PREFETCH  ACCESS:    7602693  HIT:    6883330  MISS:     719363
L1D WRITEBACK ACCESS:          0  HIT:          0  MISS:          0
L1D PREFETCH  REQUESTED:    8130731  ISSUED:    7961967  USEFUL:     199642  USELESS:     519725
L1D AVERAGE MISS LATENCY: 33.022 cycles
L1I TOTAL     ACCESS:   16439782  HIT:   14880694  MISS:    1559088
L1I LOAD      ACCESS:    9775218  HIT:    9734766  MISS:      40452
L1I RFO       ACCESS:          0  HIT:          0  MISS:          0
L1I PREFETCH  ACCESS:    6664564  HIT:    5145928  MISS:    1518636
L1I WRITEBACK ACCESS:          0  HIT:          0  MISS:          0
L1I PREFETCH  REQUESTED:    7189014  ISSUED:    7156984  USEFUL:     845425  USELESS:     673281
L1I AVERAGE MISS LATENCY: 17.0009 cycles
L2C TOTAL     ACCESS:    4455883  HIT:    3991314  MISS:     464569
L2C LOAD      ACCESS:     786726  HIT:     617822  MISS:     168904
L2C RFO       ACCESS:     104306  HIT:      18333  MISS:      85973
L2C PREFETCH  ACCESS:    3382852  HIT:    3173592  MISS:     209260
L2C WRITEBACK ACCESS:     181999  HIT:     181567  MISS:        432
L2C PREFETCH  REQUESTED:    3210243  ISSUED:    3189203  USEFUL:      19853  USELESS:     191470
L2C AVERAGE MISS LATENCY: 75.3452 cycles
LLC TOTAL     ACCESS:    1498448  HIT:    1315651  MISS:     182797
LLC LOAD      ACCESS:     168798  HIT:     146024  MISS:      22774
LLC RFO       ACCESS:      85970  HIT:      15234  MISS:      70736
LLC PREFETCH  ACCESS:    1107953  HIT:    1019019  MISS:      88934
LLC WRITEBACK ACCESS:     135727  HIT:     135374  MISS:        353
LLC PREFETCH  REQUESTED:          0  ISSUED:          0  USEFUL:      24332  USELESS:      72777
LLC AVERAGE MISS LATENCY: 167.097 cycles
Major fault: 0 Minor fault: 5306
CPU 0 L1D next line prefetcher final stats

DRAM Statistics
 CHANNEL 0
 RQ ROW_BUFFER_HIT:      51240  ROW_BUFFER_MISS:     131191
 DBUS_CONGESTED:      95995
 WQ ROW_BUFFER_HIT:      24354  ROW_BUFFER_MISS:      65292  FULL:          0

 AVG_CONGESTED_CYCLE: 6

CPU 0 Branch Prediction Accuracy: 98.6482% MPKI: 3.1551 Average ROB Occupancy at Mispredict: 97.1258

Branch types
NOT_BRANCH: 38329598 76.6592%
BRANCH_DIRECT_JUMP: 510116 1.02023%
BRANCH_INDIRECT: 225730 0.45146%
BRANCH_CONDITIONAL: 8366762 16.7335%
BRANCH_DIRECT_CALL: 600748 1.2015%
BRANCH_INDIRECT_CALL: 682990 1.36598%
BRANCH_RETURN: 1283974 2.56795%
BRANCH_OTHER: 0 0%

