Initialize SIGNATURE TABLE
ST_SET: 1
ST_WAY: 256
ST_TAG_BIT: 16
ST_TAG_MASK: ffff

Initialize PATTERN TABLE
PT_SET: 512
PT_WAY: 4
SIG_DELTA_BIT: 7
C_SIG_BIT: 4
C_DELTA_BIT: 4

Initialize PREFETCH FILTER
FILTER_SET: 1024

*** ChampSim Multicore Out-of-Order Simulator ***

Warmup Instructions: 50000000
Simulation Instructions: 50000000
Number of CPUs: 1
LLC sets: 2048
LLC ways: 16
Off-chip DRAM Size: 4096 MB Channels: 1 Width: 64-bit Data Rate: 3200 MT/s

CPU 0 runs /home/ChampSim-master//dpc3_traces/client_003.champsimtrace.xz
CPU 0 EPI prefetcher
CPU 0 L1D next line prefetcher
Heartbeat CPU 0 instructions: 10000000 cycles: 3478615 heartbeat IPC: 2.87471 cumulative IPC: 2.87471 (Simulation time: 0 hr 3 min 30 sec) 
Heartbeat CPU 0 instructions: 20000002 cycles: 6933552 heartbeat IPC: 2.89441 cumulative IPC: 2.88452 (Simulation time: 0 hr 7 min 32 sec) 
Heartbeat CPU 0 instructions: 30000003 cycles: 10494854 heartbeat IPC: 2.80796 cumulative IPC: 2.85854 (Simulation time: 0 hr 11 min 23 sec) 
Heartbeat CPU 0 instructions: 40000001 cycles: 14111560 heartbeat IPC: 2.76495 cumulative IPC: 2.83456 (Simulation time: 0 hr 15 min 7 sec) 
Heartbeat CPU 0 instructions: 50000003 cycles: 17657031 heartbeat IPC: 2.8205 cumulative IPC: 2.83173 (Simulation time: 0 hr 18 min 32 sec) 

Warmup complete CPU 0 instructions: 50000003 cycles: 17657031 (Simulation time: 0 hr 18 min 32 sec) 

Heartbeat CPU 0 instructions: 60000002 cycles: 23841870 heartbeat IPC: 1.61686 cumulative IPC: 1.61686 (Simulation time: 0 hr 21 min 41 sec) 
Heartbeat CPU 0 instructions: 70000001 cycles: 29865346 heartbeat IPC: 1.66017 cumulative IPC: 1.63823 (Simulation time: 0 hr 24 min 52 sec) 
Heartbeat CPU 0 instructions: 80000001 cycles: 36600205 heartbeat IPC: 1.48481 cumulative IPC: 1.58368 (Simulation time: 0 hr 27 min 38 sec) 
Heartbeat CPU 0 instructions: 90000000 cycles: 45558758 heartbeat IPC: 1.11625 cumulative IPC: 1.4336 (Simulation time: 0 hr 29 min 4 sec) 
Heartbeat CPU 0 instructions: 100000003 cycles: 56411006 heartbeat IPC: 0.921468 cumulative IPC: 1.29019 (Simulation time: 0 hr 30 min 17 sec) 
Finished CPU 0 instructions: 50000000 cycles: 38753975 cumulative IPC: 1.29019 (Simulation time: 0 hr 30 min 17 sec) 

ChampSim completed all CPUs

Region of Interest Statistics

CPU 0 cumulative IPC: 1.29019 instructions: 50000000 cycles: 38753975
L1D TOTAL     ACCESS:   17594600  HIT:   17098695  MISS:     495905
L1D LOAD      ACCESS:    6019509  HIT:    5892711  MISS:     126798
L1D RFO       ACCESS:    5944648  HIT:    5710192  MISS:     234456
L1D PREFETCH  ACCESS:    5630443  HIT:    5495792  MISS:     134651
L1D WRITEBACK ACCESS:          0  HIT:          0  MISS:          0
L1D PREFETCH  REQUESTED:    6061128  ISSUED:    5920517  USEFUL:      66837  USELESS:      67861
L1D AVERAGE MISS LATENCY: 123.665 cycles
L1I TOTAL     ACCESS:   31885696  HIT:   30934664  MISS:     951032
L1I LOAD      ACCESS:    9447161  HIT:    9391930  MISS:      55231
L1I RFO       ACCESS:          0  HIT:          0  MISS:          0
L1I PREFETCH  ACCESS:   22438535  HIT:   21542734  MISS:     895801
L1I WRITEBACK ACCESS:          0  HIT:          0  MISS:          0
L1I PREFETCH  REQUESTED:   30551964  ISSUED:   30551964  USEFUL:     535535  USELESS:     360308
L1I AVERAGE MISS LATENCY: 20.4161 cycles
L2C TOTAL     ACCESS:    2176975  HIT:    1765712  MISS:     411263
L2C LOAD      ACCESS:     133242  HIT:      92006  MISS:      41236
L2C RFO       ACCESS:     232377  HIT:      23971  MISS:     208406
L2C PREFETCH  ACCESS:    1542064  HIT:    1381981  MISS:     160083
L2C WRITEBACK ACCESS:     269292  HIT:     267754  MISS:       1538
L2C PREFETCH  REQUESTED:    1559459  ISSUED:    1558608  USEFUL:      11265  USELESS:     148875
L2C AVERAGE MISS LATENCY: 165.28 cycles
LLC TOTAL     ACCESS:    1013096  HIT:     725389  MISS:     287707
LLC LOAD      ACCESS:      41098  HIT:      29073  MISS:      12025
LLC RFO       ACCESS:     208398  HIT:      35988  MISS:     172410
LLC PREFETCH  ACCESS:     537268  HIT:     434375  MISS:     102893
LLC WRITEBACK ACCESS:     226332  HIT:     225953  MISS:        379
LLC PREFETCH  REQUESTED:          0  ISSUED:          0  USEFUL:      10888  USELESS:      92444
LLC AVERAGE MISS LATENCY: 234.965 cycles
Major fault: 0 Minor fault: 5045
CPU 0 L1I EPI prefetcher final stats
CPU 0 L1D next line prefetcher final stats

DRAM Statistics
 CHANNEL 0
 RQ ROW_BUFFER_HIT:     101323  ROW_BUFFER_MISS:     185995
 DBUS_CONGESTED:     259281
 WQ ROW_BUFFER_HIT:      58368  ROW_BUFFER_MISS:     120708  FULL:          0

 AVG_CONGESTED_CYCLE: 6

CPU 0 Branch Prediction Accuracy: 98.6631% MPKI: 2.66884 Average ROB Occupancy at Mispredict: 81.579

Branch types
NOT_BRANCH: 40018780 80.0376%
BRANCH_DIRECT_JUMP: 370861 0.741722%
BRANCH_INDIRECT: 83253 0.166506%
BRANCH_CONDITIONAL: 7877436 15.7549%
BRANCH_DIRECT_CALL: 722316 1.44463%
BRANCH_INDIRECT_CALL: 101901 0.203802%
BRANCH_RETURN: 825355 1.65071%
BRANCH_OTHER: 0 0%

