Initialize SIGNATURE TABLE
ST_SET: 1
ST_WAY: 256
ST_TAG_BIT: 16
ST_TAG_MASK: ffff

Initialize PATTERN TABLE
PT_SET: 512
PT_WAY: 4
SIG_DELTA_BIT: 7
C_SIG_BIT: 4
C_DELTA_BIT: 4

Initialize PREFETCH FILTER
FILTER_SET: 1024

*** ChampSim Multicore Out-of-Order Simulator ***

Warmup Instructions: 50000000
Simulation Instructions: 50000000
Number of CPUs: 1
LLC sets: 2048
LLC ways: 16
Off-chip DRAM Size: 4096 MB Channels: 1 Width: 64-bit Data Rate: 3200 MT/s

CPU 0 runs /home/ChampSim-master//dpc3_traces/client_008.champsimtrace.xz
CPU 0 EPI prefetcher
CPU 0 L1D next line prefetcher
Heartbeat CPU 0 instructions: 10000001 cycles: 3750885 heartbeat IPC: 2.66604 cumulative IPC: 2.66604 (Simulation time: 0 hr 3 min 16 sec) 
Heartbeat CPU 0 instructions: 20000001 cycles: 7523226 heartbeat IPC: 2.65087 cumulative IPC: 2.65843 (Simulation time: 0 hr 6 min 23 sec) 
Heartbeat CPU 0 instructions: 30000000 cycles: 11246830 heartbeat IPC: 2.68557 cumulative IPC: 2.66742 (Simulation time: 0 hr 10 min 7 sec) 
Heartbeat CPU 0 instructions: 40000002 cycles: 15037362 heartbeat IPC: 2.63815 cumulative IPC: 2.66004 (Simulation time: 0 hr 14 min 3 sec) 
Heartbeat CPU 0 instructions: 50000003 cycles: 18824976 heartbeat IPC: 2.64018 cumulative IPC: 2.65605 (Simulation time: 0 hr 17 min 31 sec) 

Warmup complete CPU 0 instructions: 50000003 cycles: 18824976 (Simulation time: 0 hr 17 min 31 sec) 

Heartbeat CPU 0 instructions: 60000000 cycles: 26935171 heartbeat IPC: 1.23302 cumulative IPC: 1.23302 (Simulation time: 0 hr 20 min 30 sec) 
Heartbeat CPU 0 instructions: 70000000 cycles: 34826858 heartbeat IPC: 1.26716 cumulative IPC: 1.24985 (Simulation time: 0 hr 23 min 59 sec) 
Heartbeat CPU 0 instructions: 80000001 cycles: 43823359 heartbeat IPC: 1.11154 cumulative IPC: 1.20008 (Simulation time: 0 hr 26 min 12 sec) 
Heartbeat CPU 0 instructions: 90000001 cycles: 51148629 heartbeat IPC: 1.36514 cumulative IPC: 1.23748 (Simulation time: 0 hr 27 min 43 sec) 
Heartbeat CPU 0 instructions: 100000001 cycles: 59177684 heartbeat IPC: 1.24548 cumulative IPC: 1.23907 (Simulation time: 0 hr 28 min 42 sec) 
Finished CPU 0 instructions: 50000002 cycles: 40352709 cumulative IPC: 1.23907 (Simulation time: 0 hr 28 min 42 sec) 

ChampSim completed all CPUs

Region of Interest Statistics

CPU 0 cumulative IPC: 1.23907 instructions: 50000002 cycles: 40352709
L1D TOTAL     ACCESS:   20488905  HIT:   18860439  MISS:    1628466
L1D LOAD      ACCESS:    8065133  HIT:    7266026  MISS:     799107
L1D RFO       ACCESS:    4815850  HIT:    4706309  MISS:     109541
L1D PREFETCH  ACCESS:    7607922  HIT:    6888104  MISS:     719818
L1D WRITEBACK ACCESS:          0  HIT:          0  MISS:          0
L1D PREFETCH  REQUESTED:    8133741  ISSUED:    7964857  USEFUL:     200033  USELESS:     519790
L1D AVERAGE MISS LATENCY: 32.592 cycles
L1I TOTAL     ACCESS:   28867235  HIT:   28010689  MISS:     856546
L1I LOAD      ACCESS:    9725852  HIT:    9643945  MISS:      81907
L1I RFO       ACCESS:          0  HIT:          0  MISS:          0
L1I PREFETCH  ACCESS:   19141383  HIT:   18366744  MISS:     774639
L1I WRITEBACK ACCESS:          0  HIT:          0  MISS:          0
L1I PREFETCH  REQUESTED:   23210760  ISSUED:   23210760  USEFUL:     646413  USELESS:     128235
L1I AVERAGE MISS LATENCY: 18.0087 cycles
L2C TOTAL     ACCESS:    3565952  HIT:    3120749  MISS:     445203
L2C LOAD      ACCESS:     825355  HIT:     662857  MISS:     162498
L2C RFO       ACCESS:     104291  HIT:      18331  MISS:      85960
L2C PREFETCH  ACCESS:    2454316  HIT:    2257987  MISS:     196329
L2C WRITEBACK ACCESS:     181990  HIT:     181574  MISS:        416
L2C PREFETCH  REQUESTED:    2756380  ISSUED:    2753670  USEFUL:      18428  USELESS:     179635
L2C AVERAGE MISS LATENCY: 77.2624 cycles
LLC TOTAL     ACCESS:    1291074  HIT:    1112071  MISS:     179003
LLC LOAD      ACCESS:     162377  HIT:     141727  MISS:      20650
LLC RFO       ACCESS:      85955  HIT:      16304  MISS:      69651
LLC PREFETCH  ACCESS:     907054  HIT:     818701  MISS:      88353
LLC WRITEBACK ACCESS:     135688  HIT:     135339  MISS:        349
LLC PREFETCH  REQUESTED:          0  ISSUED:          0  USEFUL:      24400  USELESS:      72202
LLC AVERAGE MISS LATENCY: 168.666 cycles
Major fault: 0 Minor fault: 5303
CPU 0 L1I EPI prefetcher final stats
CPU 0 L1D next line prefetcher final stats

DRAM Statistics
 CHANNEL 0
 RQ ROW_BUFFER_HIT:      52171  ROW_BUFFER_MISS:     126464
 DBUS_CONGESTED:      97359
 WQ ROW_BUFFER_HIT:      23819  ROW_BUFFER_MISS:      66054  FULL:          0

 AVG_CONGESTED_CYCLE: 6

CPU 0 Branch Prediction Accuracy: 98.6482% MPKI: 3.1551 Average ROB Occupancy at Mispredict: 97.3398

Branch types
NOT_BRANCH: 38329598 76.6592%
BRANCH_DIRECT_JUMP: 510116 1.02023%
BRANCH_INDIRECT: 225730 0.45146%
BRANCH_CONDITIONAL: 8366762 16.7335%
BRANCH_DIRECT_CALL: 600748 1.2015%
BRANCH_INDIRECT_CALL: 682990 1.36598%
BRANCH_RETURN: 1283974 2.56795%
BRANCH_OTHER: 0 0%

