Initialize SIGNATURE TABLE
ST_SET: 1
ST_WAY: 256
ST_TAG_BIT: 16
ST_TAG_MASK: ffff

Initialize PATTERN TABLE
PT_SET: 512
PT_WAY: 4
SIG_DELTA_BIT: 7
C_SIG_BIT: 4
C_DELTA_BIT: 4

Initialize PREFETCH FILTER
FILTER_SET: 1024

*** ChampSim Multicore Out-of-Order Simulator ***

Warmup Instructions: 50000000
Simulation Instructions: 50000000
Number of CPUs: 1
LLC sets: 2048
LLC ways: 16
Off-chip DRAM Size: 4096 MB Channels: 1 Width: 64-bit Data Rate: 3200 MT/s

CPU 0 runs /home/ChampSim-master//dpc3_traces/client_002.champsimtrace.xz
CPU 0 EPI prefetcher
CPU 0 L1D next line prefetcher
Heartbeat CPU 0 instructions: 10000000 cycles: 3404960 heartbeat IPC: 2.93689 cumulative IPC: 2.93689 (Simulation time: 0 hr 3 min 18 sec) 
Heartbeat CPU 0 instructions: 20000002 cycles: 6860606 heartbeat IPC: 2.89382 cumulative IPC: 2.91519 (Simulation time: 0 hr 7 min 4 sec) 
Heartbeat CPU 0 instructions: 30000001 cycles: 10293430 heartbeat IPC: 2.91305 cumulative IPC: 2.91448 (Simulation time: 0 hr 10 min 16 sec) 
Heartbeat CPU 0 instructions: 40000002 cycles: 13726290 heartbeat IPC: 2.91302 cumulative IPC: 2.91412 (Simulation time: 0 hr 13 min 30 sec) 
Heartbeat CPU 0 instructions: 50000002 cycles: 17167183 heartbeat IPC: 2.90622 cumulative IPC: 2.91253 (Simulation time: 0 hr 16 min 41 sec) 

Warmup complete CPU 0 instructions: 50000002 cycles: 17167183 (Simulation time: 0 hr 16 min 41 sec) 

Heartbeat CPU 0 instructions: 60000002 cycles: 23127809 heartbeat IPC: 1.67768 cumulative IPC: 1.67768 (Simulation time: 0 hr 19 min 25 sec) 
Heartbeat CPU 0 instructions: 70000001 cycles: 29146196 heartbeat IPC: 1.66157 cumulative IPC: 1.66959 (Simulation time: 0 hr 22 min 8 sec) 
Heartbeat CPU 0 instructions: 80000003 cycles: 35042825 heartbeat IPC: 1.69588 cumulative IPC: 1.67826 (Simulation time: 0 hr 24 min 50 sec) 
Heartbeat CPU 0 instructions: 90000000 cycles: 41491965 heartbeat IPC: 1.55059 cumulative IPC: 1.64441 (Simulation time: 0 hr 26 min 56 sec) 
Heartbeat CPU 0 instructions: 100000003 cycles: 47435281 heartbeat IPC: 1.68256 cumulative IPC: 1.6519 (Simulation time: 0 hr 28 min 22 sec) 
Finished CPU 0 instructions: 50000001 cycles: 30268098 cumulative IPC: 1.6519 (Simulation time: 0 hr 28 min 22 sec) 

ChampSim completed all CPUs

Region of Interest Statistics

CPU 0 cumulative IPC: 1.6519 instructions: 50000001 cycles: 30268098
L1D TOTAL     ACCESS:   19104971  HIT:   18765715  MISS:     339256
L1D LOAD      ACCESS:    6472465  HIT:    6355504  MISS:     116961
L1D RFO       ACCESS:    6420776  HIT:    6330945  MISS:      89831
L1D PREFETCH  ACCESS:    6211730  HIT:    6079266  MISS:     132464
L1D WRITEBACK ACCESS:          0  HIT:          0  MISS:          0
L1D PREFETCH  REQUESTED:    6482584  ISSUED:    6281142  USEFUL:      53637  USELESS:      78969
L1D AVERAGE MISS LATENCY: 49.5521 cycles
L1I TOTAL     ACCESS:   35366678  HIT:   34507490  MISS:     859188
L1I LOAD      ACCESS:    9513090  HIT:    9443463  MISS:      69627
L1I RFO       ACCESS:          0  HIT:          0  MISS:          0
L1I PREFETCH  ACCESS:   25853588  HIT:   25064027  MISS:     789561
L1I WRITEBACK ACCESS:          0  HIT:          0  MISS:          0
L1I PREFETCH  REQUESTED:   32507137  ISSUED:   32507137  USEFUL:     568404  USELESS:     221146
L1I AVERAGE MISS LATENCY: 18.3143 cycles
L2C TOTAL     ACCESS:    1717741  HIT:    1473278  MISS:     244463
L2C LOAD      ACCESS:     160236  HIT:     113105  MISS:      47131
L2C RFO       ACCESS:      88838  HIT:      22725  MISS:      66113
L2C PREFETCH  ACCESS:    1343161  HIT:    1212376  MISS:     130785
L2C WRITEBACK ACCESS:     125506  HIT:     125072  MISS:        434
L2C PREFETCH  REQUESTED:    1064523  ISSUED:    1063984  USEFUL:      11280  USELESS:     118408
L2C AVERAGE MISS LATENCY: 64.4205 cycles
LLC TOTAL     ACCESS:     586509  HIT:     523495  MISS:      63014
LLC LOAD      ACCESS:      47129  HIT:      41292  MISS:       5837
LLC RFO       ACCESS:      66112  HIT:      36632  MISS:      29480
LLC PREFETCH  ACCESS:     388815  HIT:     361349  MISS:      27466
LLC WRITEBACK ACCESS:      84453  HIT:      84222  MISS:        231
LLC PREFETCH  REQUESTED:          0  ISSUED:          0  USEFUL:       5960  USELESS:      20236
LLC AVERAGE MISS LATENCY: 180.802 cycles
Major fault: 0 Minor fault: 3092
CPU 0 L1I EPI prefetcher final stats
CPU 0 L1D next line prefetcher final stats

DRAM Statistics
 CHANNEL 0
 RQ ROW_BUFFER_HIT:      21927  ROW_BUFFER_MISS:      40856
 DBUS_CONGESTED:      44029
 WQ ROW_BUFFER_HIT:       8829  ROW_BUFFER_MISS:      28296  FULL:          0

 AVG_CONGESTED_CYCLE: 6

CPU 0 Branch Prediction Accuracy: 99.2117% MPKI: 1.49752 Average ROB Occupancy at Mispredict: 116.626

Branch types
NOT_BRANCH: 40501616 81.0032%
BRANCH_DIRECT_JUMP: 517397 1.03479%
BRANCH_INDIRECT: 112348 0.224696%
BRANCH_CONDITIONAL: 6698737 13.3975%
BRANCH_DIRECT_CALL: 960974 1.92195%
BRANCH_INDIRECT_CALL: 123707 0.247414%
BRANCH_RETURN: 1084929 2.16986%
BRANCH_OTHER: 0 0%

