Initialize SIGNATURE TABLE
ST_SET: 1
ST_WAY: 256
ST_TAG_BIT: 16
ST_TAG_MASK: ffff

Initialize PATTERN TABLE
PT_SET: 512
PT_WAY: 4
SIG_DELTA_BIT: 7
C_SIG_BIT: 4
C_DELTA_BIT: 4

Initialize PREFETCH FILTER
FILTER_SET: 1024

*** ChampSim Multicore Out-of-Order Simulator ***

Warmup Instructions: 50000000
Simulation Instructions: 50000000
Number of CPUs: 1
LLC sets: 2048
LLC ways: 16
Off-chip DRAM Size: 4096 MB Channels: 1 Width: 64-bit Data Rate: 3200 MT/s

CPU 0 runs /home/ChampSim-master//dpc3_traces/client_007.champsimtrace.xz
L1I D-JOLT instruction prefetcher has been constructed!
CPU 0 L1D next line prefetcher
Heartbeat CPU 0 instructions: 10000001 cycles: 3642288 heartbeat IPC: 2.74553 cumulative IPC: 2.74553 (Simulation time: 0 hr 2 min 24 sec) 
Heartbeat CPU 0 instructions: 20000003 cycles: 7034231 heartbeat IPC: 2.94816 cumulative IPC: 2.84324 (Simulation time: 0 hr 4 min 38 sec) 
Heartbeat CPU 0 instructions: 30000000 cycles: 10906376 heartbeat IPC: 2.58255 cumulative IPC: 2.75068 (Simulation time: 0 hr 7 min 28 sec) 
Heartbeat CPU 0 instructions: 40000003 cycles: 15066349 heartbeat IPC: 2.40386 cumulative IPC: 2.65492 (Simulation time: 0 hr 10 min 14 sec) 
Heartbeat CPU 0 instructions: 50000002 cycles: 18471615 heartbeat IPC: 2.93663 cumulative IPC: 2.70686 (Simulation time: 0 hr 12 min 31 sec) 

Warmup complete CPU 0 instructions: 50000002 cycles: 18471615 (Simulation time: 0 hr 12 min 31 sec) 

Heartbeat CPU 0 instructions: 60000003 cycles: 25363137 heartbeat IPC: 1.45106 cumulative IPC: 1.45106 (Simulation time: 0 hr 15 min 12 sec) 
Heartbeat CPU 0 instructions: 70000003 cycles: 34235233 heartbeat IPC: 1.12713 cumulative IPC: 1.26874 (Simulation time: 0 hr 18 min 0 sec) 
Heartbeat CPU 0 instructions: 80000002 cycles: 39572213 heartbeat IPC: 1.87372 cumulative IPC: 1.42176 (Simulation time: 0 hr 19 min 41 sec) 
Heartbeat CPU 0 instructions: 90000002 cycles: 47197464 heartbeat IPC: 1.31143 cumulative IPC: 1.39247 (Simulation time: 0 hr 21 min 51 sec) 
Heartbeat CPU 0 instructions: 100000002 cycles: 56126962 heartbeat IPC: 1.11988 cumulative IPC: 1.32783 (Simulation time: 0 hr 23 min 44 sec) 
Finished CPU 0 instructions: 50000000 cycles: 37655347 cumulative IPC: 1.32783 (Simulation time: 0 hr 23 min 44 sec) 

ChampSim completed all CPUs

Region of Interest Statistics

CPU 0 cumulative IPC: 1.32783 instructions: 50000000 cycles: 37655347
L1D TOTAL     ACCESS:   21192625  HIT:   20023528  MISS:    1169097
L1D LOAD      ACCESS:    8366566  HIT:    7827527  MISS:     539039
L1D RFO       ACCESS:    4868647  HIT:    4777579  MISS:      91068
L1D PREFETCH  ACCESS:    7957412  HIT:    7418422  MISS:     538990
L1D WRITEBACK ACCESS:          0  HIT:          0  MISS:          0
L1D PREFETCH  REQUESTED:    8418346  ISSUED:    8174481  USEFUL:     158510  USELESS:     380496
L1D AVERAGE MISS LATENCY: 34.5294 cycles
L1I TOTAL     ACCESS:   13041837  HIT:   11868341  MISS:    1173496
L1I LOAD      ACCESS:    9124429  HIT:    9084757  MISS:      39672
L1I RFO       ACCESS:          0  HIT:          0  MISS:          0
L1I PREFETCH  ACCESS:    3917408  HIT:    2783584  MISS:    1133824
L1I WRITEBACK ACCESS:          0  HIT:          0  MISS:          0
L1I PREFETCH  REQUESTED:    4110356  ISSUED:    4056889  USEFUL:     861981  USELESS:     271902
L1I AVERAGE MISS LATENCY: 16.5404 cycles
L2C TOTAL     ACCESS:    3494394  HIT:    3287177  MISS:     207217
L2C LOAD      ACCESS:     550190  HIT:     480149  MISS:      70041
L2C RFO       ACCESS:      89503  HIT:      47801  MISS:      41702
L2C PREFETCH  ACCESS:    2527035  HIT:    2431723  MISS:      95312
L2C WRITEBACK ACCESS:     327666  HIT:     327504  MISS:        162
L2C PREFETCH  REQUESTED:    2513981  ISSUED:    2505344  USEFUL:       9873  USELESS:      85304
L2C AVERAGE MISS LATENCY: 124.949 cycles
LLC TOTAL     ACCESS:     927486  HIT:     757882  MISS:     169604
LLC LOAD      ACCESS:      69951  HIT:      34667  MISS:      35284
LLC RFO       ACCESS:      41702  HIT:       7205  MISS:      34497
LLC PREFETCH  ACCESS:     741533  HIT:     642032  MISS:      99501
LLC WRITEBACK ACCESS:      74300  HIT:      73978  MISS:        322
LLC PREFETCH  REQUESTED:          0  ISSUED:          0  USEFUL:      18912  USELESS:      81759
LLC AVERAGE MISS LATENCY: 183.139 cycles
Major fault: 0 Minor fault: 4411
CPU 0 L1D next line prefetcher final stats

DRAM Statistics
 CHANNEL 0
 RQ ROW_BUFFER_HIT:      35296  ROW_BUFFER_MISS:     133985
 DBUS_CONGESTED:      93898
 WQ ROW_BUFFER_HIT:      12895  ROW_BUFFER_MISS:      45430  FULL:          0

 AVG_CONGESTED_CYCLE: 5

CPU 0 Branch Prediction Accuracy: 98.8607% MPKI: 1.8623 Average ROB Occupancy at Mispredict: 113.406

Branch types
NOT_BRANCH: 41826773 83.6535%
BRANCH_DIRECT_JUMP: 735330 1.47066%
BRANCH_INDIRECT: 269194 0.538388%
BRANCH_CONDITIONAL: 5957947 11.9159%
BRANCH_DIRECT_CALL: 368758 0.737516%
BRANCH_INDIRECT_CALL: 226975 0.45395%
BRANCH_RETURN: 614696 1.22939%
BRANCH_OTHER: 0 0%

