Initialize SIGNATURE TABLE
ST_SET: 1
ST_WAY: 256
ST_TAG_BIT: 16
ST_TAG_MASK: ffff

Initialize PATTERN TABLE
PT_SET: 512
PT_WAY: 4
SIG_DELTA_BIT: 7
C_SIG_BIT: 4
C_DELTA_BIT: 4

Initialize PREFETCH FILTER
FILTER_SET: 1024

*** ChampSim Multicore Out-of-Order Simulator ***

Warmup Instructions: 50000000
Simulation Instructions: 50000000
Number of CPUs: 1
LLC sets: 2048
LLC ways: 16
Off-chip DRAM Size: 4096 MB Channels: 1 Width: 64-bit Data Rate: 3200 MT/s

CPU 0 runs /home/ChampSim-master//dpc3_traces/client_001.champsimtrace.xz
CPU 0 EPI prefetcher
CPU 0 L1D next line prefetcher
Heartbeat CPU 0 instructions: 10000003 cycles: 3410573 heartbeat IPC: 2.93206 cumulative IPC: 2.93206 (Simulation time: 0 hr 3 min 3 sec) 
Heartbeat CPU 0 instructions: 20000001 cycles: 7119113 heartbeat IPC: 2.69648 cumulative IPC: 2.80934 (Simulation time: 0 hr 6 min 23 sec) 
Heartbeat CPU 0 instructions: 30000001 cycles: 10482243 heartbeat IPC: 2.97342 cumulative IPC: 2.86198 (Simulation time: 0 hr 9 min 12 sec) 
Heartbeat CPU 0 instructions: 40000003 cycles: 14351932 heartbeat IPC: 2.58419 cumulative IPC: 2.78708 (Simulation time: 0 hr 12 min 33 sec) 
Heartbeat CPU 0 instructions: 50000003 cycles: 17648968 heartbeat IPC: 3.03303 cumulative IPC: 2.83303 (Simulation time: 0 hr 15 min 23 sec) 

Warmup complete CPU 0 instructions: 50000003 cycles: 17648968 (Simulation time: 0 hr 15 min 23 sec) 

Heartbeat CPU 0 instructions: 60000000 cycles: 26679447 heartbeat IPC: 1.10736 cumulative IPC: 1.10736 (Simulation time: 0 hr 18 min 3 sec) 
Heartbeat CPU 0 instructions: 70000000 cycles: 32977704 heartbeat IPC: 1.58774 cumulative IPC: 1.30474 (Simulation time: 0 hr 20 min 24 sec) 
Heartbeat CPU 0 instructions: 80000002 cycles: 42295798 heartbeat IPC: 1.07318 cumulative IPC: 1.2172 (Simulation time: 0 hr 23 min 15 sec) 
Heartbeat CPU 0 instructions: 90000000 cycles: 48443757 heartbeat IPC: 1.62656 cumulative IPC: 1.29892 (Simulation time: 0 hr 25 min 27 sec) 
Heartbeat CPU 0 instructions: 100000002 cycles: 57275811 heartbeat IPC: 1.13224 cumulative IPC: 1.26177 (Simulation time: 0 hr 27 min 38 sec) 
Finished CPU 0 instructions: 50000003 cycles: 39626844 cumulative IPC: 1.26177 (Simulation time: 0 hr 27 min 38 sec) 

ChampSim completed all CPUs

Region of Interest Statistics

CPU 0 cumulative IPC: 1.26177 instructions: 50000003 cycles: 39626844
L1D TOTAL     ACCESS:   21233142  HIT:   20396683  MISS:     836459
L1D LOAD      ACCESS:    8817800  HIT:    8423136  MISS:     394664
L1D RFO       ACCESS:    4041086  HIT:    3982041  MISS:      59045
L1D PREFETCH  ACCESS:    8374256  HIT:    7991506  MISS:     382750
L1D WRITEBACK ACCESS:          0  HIT:          0  MISS:          0
L1D PREFETCH  REQUESTED:    8863128  ISSUED:    8553353  USEFUL:     129732  USELESS:     252992
L1D AVERAGE MISS LATENCY: 47.3636 cycles
L1I TOTAL     ACCESS:   32247553  HIT:   31859710  MISS:     387843
L1I LOAD      ACCESS:    8921759  HIT:    8912983  MISS:       8776
L1I RFO       ACCESS:          0  HIT:          0  MISS:          0
L1I PREFETCH  ACCESS:   23325794  HIT:   22946727  MISS:     379067
L1I WRITEBACK ACCESS:          0  HIT:          0  MISS:          0
L1I PREFETCH  REQUESTED:   29203624  ISSUED:   29203624  USEFUL:     292477  USELESS:      86540
L1I AVERAGE MISS LATENCY: 22.94 cycles
L2C TOTAL     ACCESS:    1878463  HIT:    1573825  MISS:     304638
L2C LOAD      ACCESS:     380832  HIT:     269113  MISS:     111719
L2C RFO       ACCESS:      58298  HIT:      21601  MISS:      36697
L2C PREFETCH  ACCESS:    1249732  HIT:    1093733  MISS:     155999
L2C WRITEBACK ACCESS:     189601  HIT:     189378  MISS:        223
L2C PREFETCH  REQUESTED:    1700426  ISSUED:    1694064  USEFUL:      14119  USELESS:     140762
L2C AVERAGE MISS LATENCY: 105.746 cycles
LLC TOTAL     ACCESS:     813853  HIT:     616438  MISS:     197415
LLC LOAD      ACCESS:     111355  HIT:      70196  MISS:      41159
LLC RFO       ACCESS:      36697  HIT:       8649  MISS:      28048
LLC PREFETCH  ACCESS:     559846  HIT:     432310  MISS:     127536
LLC WRITEBACK ACCESS:     105955  HIT:     105283  MISS:        672
LLC PREFETCH  REQUESTED:          0  ISSUED:          0  USEFUL:      28528  USELESS:     100805
LLC AVERAGE MISS LATENCY: 190.489 cycles
Major fault: 0 Minor fault: 3436
CPU 0 L1I EPI prefetcher final stats
CPU 0 L1D next line prefetcher final stats

DRAM Statistics
 CHANNEL 0
 RQ ROW_BUFFER_HIT:      48289  ROW_BUFFER_MISS:     148441
 DBUS_CONGESTED:     118281
 WQ ROW_BUFFER_HIT:      15547  ROW_BUFFER_MISS:      65369  FULL:          0

 AVG_CONGESTED_CYCLE: 5

CPU 0 Branch Prediction Accuracy: 97.9037% MPKI: 3.63418 Average ROB Occupancy at Mispredict: 87.0383

Branch types
NOT_BRANCH: 41331383 82.6628%
BRANCH_DIRECT_JUMP: 455615 0.91123%
BRANCH_INDIRECT: 20390 0.04078%
BRANCH_CONDITIONAL: 6745374 13.4907%
BRANCH_DIRECT_CALL: 494532 0.989064%
BRANCH_INDIRECT_CALL: 228815 0.45763%
BRANCH_RETURN: 723560 1.44712%
BRANCH_OTHER: 0 0%

