Initialize SIGNATURE TABLE
ST_SET: 1
ST_WAY: 256
ST_TAG_BIT: 16
ST_TAG_MASK: ffff

Initialize PATTERN TABLE
PT_SET: 512
PT_WAY: 4
SIG_DELTA_BIT: 7
C_SIG_BIT: 4
C_DELTA_BIT: 4

Initialize PREFETCH FILTER
FILTER_SET: 1024

*** ChampSim Multicore Out-of-Order Simulator ***

Warmup Instructions: 50000000
Simulation Instructions: 50000000
Number of CPUs: 1
LLC sets: 2048
LLC ways: 16
Off-chip DRAM Size: 4096 MB Channels: 1 Width: 64-bit Data Rate: 3200 MT/s

CPU 0 runs /home/ChampSim-master//dpc3_traces/client_007.champsimtrace.xz
L1I D-JOLT instruction prefetcher has been constructed!
CPU 0 L1D next line prefetcher
Heartbeat CPU 0 instructions: 10000001 cycles: 3642150 heartbeat IPC: 2.74563 cumulative IPC: 2.74563 (Simulation time: 0 hr 2 min 22 sec) 
Heartbeat CPU 0 instructions: 20000003 cycles: 7034475 heartbeat IPC: 2.94783 cumulative IPC: 2.84314 (Simulation time: 0 hr 4 min 45 sec) 
Heartbeat CPU 0 instructions: 30000000 cycles: 10906990 heartbeat IPC: 2.5823 cumulative IPC: 2.75053 (Simulation time: 0 hr 7 min 37 sec) 
Heartbeat CPU 0 instructions: 40000003 cycles: 15066957 heartbeat IPC: 2.40387 cumulative IPC: 2.65482 (Simulation time: 0 hr 10 min 35 sec) 
Heartbeat CPU 0 instructions: 50000002 cycles: 18472122 heartbeat IPC: 2.93671 cumulative IPC: 2.70678 (Simulation time: 0 hr 13 min 8 sec) 

Warmup complete CPU 0 instructions: 50000002 cycles: 18472122 (Simulation time: 0 hr 13 min 8 sec) 

Heartbeat CPU 0 instructions: 60000003 cycles: 25368911 heartbeat IPC: 1.44995 cumulative IPC: 1.44995 (Simulation time: 0 hr 15 min 30 sec) 
Heartbeat CPU 0 instructions: 70000003 cycles: 34245406 heartbeat IPC: 1.12657 cumulative IPC: 1.26797 (Simulation time: 0 hr 17 min 50 sec) 
Heartbeat CPU 0 instructions: 80000002 cycles: 39609123 heartbeat IPC: 1.86438 cumulative IPC: 1.41931 (Simulation time: 0 hr 19 min 26 sec) 
Heartbeat CPU 0 instructions: 90000002 cycles: 47241958 heartbeat IPC: 1.31013 cumulative IPC: 1.39035 (Simulation time: 0 hr 21 min 33 sec) 
Heartbeat CPU 0 instructions: 100000002 cycles: 56178345 heartbeat IPC: 1.11902 cumulative IPC: 1.32604 (Simulation time: 0 hr 23 min 13 sec) 
Finished CPU 0 instructions: 50000000 cycles: 37706223 cumulative IPC: 1.32604 (Simulation time: 0 hr 23 min 13 sec) 

ChampSim completed all CPUs

Region of Interest Statistics

CPU 0 cumulative IPC: 1.32604 instructions: 50000000 cycles: 37706223
L1D TOTAL     ACCESS:   21198335  HIT:   20029268  MISS:    1169067
L1D LOAD      ACCESS:    8369680  HIT:    7830443  MISS:     539237
L1D RFO       ACCESS:    4868645  HIT:    4777589  MISS:      91056
L1D PREFETCH  ACCESS:    7960010  HIT:    7421236  MISS:     538774
L1D WRITEBACK ACCESS:          0  HIT:          0  MISS:          0
L1D PREFETCH  REQUESTED:    8421737  ISSUED:    8178029  USEFUL:     158296  USELESS:     380494
L1D AVERAGE MISS LATENCY: 34.4478 cycles
L1I TOTAL     ACCESS:   12554852  HIT:   11422910  MISS:    1131942
L1I LOAD      ACCESS:    9114860  HIT:    9060154  MISS:      54706
L1I RFO       ACCESS:          0  HIT:          0  MISS:          0
L1I PREFETCH  ACCESS:    3439992  HIT:    2362756  MISS:    1077236
L1I WRITEBACK ACCESS:          0  HIT:          0  MISS:          0
L1I PREFETCH  REQUESTED:    3630264  ISSUED:    3582424  USEFUL:     840552  USELESS:     236732
L1I AVERAGE MISS LATENCY: 16.3691 cycles
L2C TOTAL     ACCESS:    3486053  HIT:    3278220  MISS:     207833
L2C LOAD      ACCESS:     564586  HIT:     493564  MISS:      71022
L2C RFO       ACCESS:      89463  HIT:      47459  MISS:      42004
L2C PREFETCH  ACCESS:    2504356  HIT:    2409658  MISS:      94698
L2C WRITEBACK ACCESS:     327648  HIT:     327539  MISS:        109
L2C PREFETCH  REQUESTED:    2432638  ISSUED:    2426814  USEFUL:       9942  USELESS:      84192
L2C AVERAGE MISS LATENCY: 123.401 cycles
LLC TOTAL     ACCESS:     847079  HIT:     678799  MISS:     168280
LLC LOAD      ACCESS:      70945  HIT:      34929  MISS:      36016
LLC RFO       ACCESS:      42004  HIT:       7504  MISS:      34500
LLC PREFETCH  ACCESS:     659347  HIT:     561903  MISS:      97444
LLC WRITEBACK ACCESS:      74783  HIT:      74463  MISS:        320
LLC PREFETCH  REQUESTED:          0  ISSUED:          0  USEFUL:      18988  USELESS:      79000
LLC AVERAGE MISS LATENCY: 180.337 cycles
Major fault: 0 Minor fault: 4413
CPU 0 L1D next line prefetcher final stats

DRAM Statistics
 CHANNEL 0
 RQ ROW_BUFFER_HIT:      34914  ROW_BUFFER_MISS:     133040
 DBUS_CONGESTED:      93716
 WQ ROW_BUFFER_HIT:      12941  ROW_BUFFER_MISS:      45424  FULL:          0

 AVG_CONGESTED_CYCLE: 5

CPU 0 Branch Prediction Accuracy: 98.8607% MPKI: 1.8623 Average ROB Occupancy at Mispredict: 112.897

Branch types
NOT_BRANCH: 41826773 83.6535%
BRANCH_DIRECT_JUMP: 735330 1.47066%
BRANCH_INDIRECT: 269194 0.538388%
BRANCH_CONDITIONAL: 5957947 11.9159%
BRANCH_DIRECT_CALL: 368758 0.737516%
BRANCH_INDIRECT_CALL: 226975 0.45395%
BRANCH_RETURN: 614696 1.22939%
BRANCH_OTHER: 0 0%

