Initialize SIGNATURE TABLE
ST_SET: 1
ST_WAY: 256
ST_TAG_BIT: 16
ST_TAG_MASK: ffff

Initialize PATTERN TABLE
PT_SET: 512
PT_WAY: 4
SIG_DELTA_BIT: 7
C_SIG_BIT: 4
C_DELTA_BIT: 4

Initialize PREFETCH FILTER
FILTER_SET: 1024

*** ChampSim Multicore Out-of-Order Simulator ***

Warmup Instructions: 50000000
Simulation Instructions: 50000000
Number of CPUs: 1
LLC sets: 2048
LLC ways: 16
Off-chip DRAM Size: 4096 MB Channels: 1 Width: 64-bit Data Rate: 3200 MT/s

CPU 0 runs /home/ChampSim-master//dpc3_traces/client_007.champsimtrace.xz
CPU 0 EPI prefetcher
CPU 0 L1D next line prefetcher
Heartbeat CPU 0 instructions: 10000001 cycles: 3641643 heartbeat IPC: 2.74601 cumulative IPC: 2.74601 (Simulation time: 0 hr 3 min 23 sec) 
Heartbeat CPU 0 instructions: 20000003 cycles: 7033048 heartbeat IPC: 2.94863 cumulative IPC: 2.84372 (Simulation time: 0 hr 6 min 20 sec) 
Heartbeat CPU 0 instructions: 30000000 cycles: 10903883 heartbeat IPC: 2.58342 cumulative IPC: 2.75131 (Simulation time: 0 hr 9 min 46 sec) 
Heartbeat CPU 0 instructions: 40000003 cycles: 15063813 heartbeat IPC: 2.40389 cumulative IPC: 2.65537 (Simulation time: 0 hr 12 min 49 sec) 
Heartbeat CPU 0 instructions: 50000002 cycles: 18468274 heartbeat IPC: 2.93732 cumulative IPC: 2.70735 (Simulation time: 0 hr 15 min 27 sec) 

Warmup complete CPU 0 instructions: 50000002 cycles: 18468274 (Simulation time: 0 hr 15 min 27 sec) 

Heartbeat CPU 0 instructions: 60000003 cycles: 25347130 heartbeat IPC: 1.45373 cumulative IPC: 1.45373 (Simulation time: 0 hr 18 min 12 sec) 
Heartbeat CPU 0 instructions: 70000003 cycles: 34190633 heartbeat IPC: 1.13077 cumulative IPC: 1.27207 (Simulation time: 0 hr 21 min 6 sec) 
Heartbeat CPU 0 instructions: 80000002 cycles: 39497129 heartbeat IPC: 1.88448 cumulative IPC: 1.42661 (Simulation time: 0 hr 22 min 57 sec) 
Heartbeat CPU 0 instructions: 90000002 cycles: 47079669 heartbeat IPC: 1.31882 cumulative IPC: 1.39804 (Simulation time: 0 hr 25 min 30 sec) 
Heartbeat CPU 0 instructions: 100000002 cycles: 56009570 heartbeat IPC: 1.11983 cumulative IPC: 1.33187 (Simulation time: 0 hr 27 min 34 sec) 
Finished CPU 0 instructions: 50000000 cycles: 37541296 cumulative IPC: 1.33187 (Simulation time: 0 hr 27 min 34 sec) 

ChampSim completed all CPUs

Region of Interest Statistics

CPU 0 cumulative IPC: 1.33187 instructions: 50000000 cycles: 37541296
L1D TOTAL     ACCESS:   21190677  HIT:   20021589  MISS:    1169088
L1D LOAD      ACCESS:    8365876  HIT:    7826675  MISS:     539201
L1D RFO       ACCESS:    4868703  HIT:    4777646  MISS:      91057
L1D PREFETCH  ACCESS:    7956098  HIT:    7417268  MISS:     538830
L1D WRITEBACK ACCESS:          0  HIT:          0  MISS:          0
L1D PREFETCH  REQUESTED:    8418065  ISSUED:    8174006  USEFUL:     158360  USELESS:     380486
L1D AVERAGE MISS LATENCY: 34.4609 cycles
L1I TOTAL     ACCESS:   28032008  HIT:   27010041  MISS:    1021967
L1I LOAD      ACCESS:    9126987  HIT:    9115486  MISS:      11501
L1I RFO       ACCESS:          0  HIT:          0  MISS:          0
L1I PREFETCH  ACCESS:   18905021  HIT:   17894555  MISS:    1010466
L1I WRITEBACK ACCESS:          0  HIT:          0  MISS:          0
L1I PREFETCH  REQUESTED:   22450861  ISSUED:   22450861  USEFUL:     836243  USELESS:     174241
L1I AVERAGE MISS LATENCY: 16.9715 cycles
L2C TOTAL     ACCESS:    3152779  HIT:    2945989  MISS:     206790
L2C LOAD      ACCESS:     519771  HIT:     450578  MISS:      69193
L2C RFO       ACCESS:      89496  HIT:      47921  MISS:      41575
L2C PREFETCH  ACCESS:    2215820  HIT:    2119926  MISS:      95894
L2C WRITEBACK ACCESS:     327692  HIT:     327564  MISS:        128
L2C PREFETCH  REQUESTED:    2618424  ISSUED:    2610755  USEFUL:       9020  USELESS:      87125
L2C AVERAGE MISS LATENCY: 125.855 cycles
LLC TOTAL     ACCESS:     989121  HIT:     820986  MISS:     168135
LLC LOAD      ACCESS:      69101  HIT:      34458  MISS:      34643
LLC RFO       ACCESS:      41575  HIT:       7181  MISS:      34394
LLC PREFETCH  ACCESS:     803984  HIT:     705199  MISS:      98785
LLC WRITEBACK ACCESS:      74461  HIT:      74148  MISS:        313
LLC PREFETCH  REQUESTED:          0  ISSUED:          0  USEFUL:      18782  USELESS:      80816
LLC AVERAGE MISS LATENCY: 184.166 cycles
Major fault: 0 Minor fault: 4405
CPU 0 L1I EPI prefetcher final stats
CPU 0 L1D next line prefetcher final stats

DRAM Statistics
 CHANNEL 0
 RQ ROW_BUFFER_HIT:      35603  ROW_BUFFER_MISS:     132208
 DBUS_CONGESTED:      94717
 WQ ROW_BUFFER_HIT:      12877  ROW_BUFFER_MISS:      45786  FULL:          0

 AVG_CONGESTED_CYCLE: 5

CPU 0 Branch Prediction Accuracy: 98.8607% MPKI: 1.8623 Average ROB Occupancy at Mispredict: 113.925

Branch types
NOT_BRANCH: 41826773 83.6535%
BRANCH_DIRECT_JUMP: 735330 1.47066%
BRANCH_INDIRECT: 269194 0.538388%
BRANCH_CONDITIONAL: 5957947 11.9159%
BRANCH_DIRECT_CALL: 368758 0.737516%
BRANCH_INDIRECT_CALL: 226975 0.45395%
BRANCH_RETURN: 614696 1.22939%
BRANCH_OTHER: 0 0%

