Initialize SIGNATURE TABLE
ST_SET: 1
ST_WAY: 256
ST_TAG_BIT: 16
ST_TAG_MASK: ffff

Initialize PATTERN TABLE
PT_SET: 512
PT_WAY: 4
SIG_DELTA_BIT: 7
C_SIG_BIT: 4
C_DELTA_BIT: 4

Initialize PREFETCH FILTER
FILTER_SET: 1024

*** ChampSim Multicore Out-of-Order Simulator ***

Warmup Instructions: 50000000
Simulation Instructions: 50000000
Number of CPUs: 1
LLC sets: 2048
LLC ways: 16
Off-chip DRAM Size: 4096 MB Channels: 1 Width: 64-bit Data Rate: 3200 MT/s

CPU 0 runs /home/ChampSim-master//dpc3_traces/server_002.champsimtrace.xz
L1I D-JOLT instruction prefetcher has been constructed!
CPU 0 L1D next line prefetcher
Heartbeat CPU 0 instructions: 10000000 cycles: 3581227 heartbeat IPC: 2.79234 cumulative IPC: 2.79234 (Simulation time: 0 hr 3 min 6 sec) 
Heartbeat CPU 0 instructions: 20000002 cycles: 7170106 heartbeat IPC: 2.78639 cumulative IPC: 2.78936 (Simulation time: 0 hr 6 min 24 sec) 
Heartbeat CPU 0 instructions: 30000000 cycles: 10710846 heartbeat IPC: 2.82427 cumulative IPC: 2.8009 (Simulation time: 0 hr 9 min 45 sec) 
Heartbeat CPU 0 instructions: 40000000 cycles: 14261091 heartbeat IPC: 2.81671 cumulative IPC: 2.80483 (Simulation time: 0 hr 13 min 4 sec) 
Heartbeat CPU 0 instructions: 50000001 cycles: 17808862 heartbeat IPC: 2.81867 cumulative IPC: 2.80759 (Simulation time: 0 hr 15 min 49 sec) 

Warmup complete CPU 0 instructions: 50000001 cycles: 17808862 (Simulation time: 0 hr 15 min 49 sec) 

Heartbeat CPU 0 instructions: 60000000 cycles: 24249018 heartbeat IPC: 1.55276 cumulative IPC: 1.55276 (Simulation time: 0 hr 18 min 48 sec) 
Heartbeat CPU 0 instructions: 70000003 cycles: 30683208 heartbeat IPC: 1.5542 cumulative IPC: 1.55348 (Simulation time: 0 hr 21 min 39 sec) 
Heartbeat CPU 0 instructions: 80000003 cycles: 37119713 heartbeat IPC: 1.55364 cumulative IPC: 1.55353 (Simulation time: 0 hr 24 min 28 sec) 
Heartbeat CPU 0 instructions: 90000002 cycles: 43553780 heartbeat IPC: 1.55423 cumulative IPC: 1.5537 (Simulation time: 0 hr 26 min 13 sec) 
Heartbeat CPU 0 instructions: 100000003 cycles: 49987325 heartbeat IPC: 1.55435 cumulative IPC: 1.55383 (Simulation time: 0 hr 26 min 59 sec) 
Finished CPU 0 instructions: 50000002 cycles: 32178463 cumulative IPC: 1.55383 (Simulation time: 0 hr 26 min 59 sec) 

ChampSim completed all CPUs

Region of Interest Statistics

CPU 0 cumulative IPC: 1.55383 instructions: 50000002 cycles: 32178463
L1D TOTAL     ACCESS:   21520490  HIT:   21519681  MISS:        809
L1D LOAD      ACCESS:    6599855  HIT:    6599480  MISS:        375
L1D RFO       ACCESS:    8433016  HIT:    8432904  MISS:        112
L1D PREFETCH  ACCESS:    6487619  HIT:    6487297  MISS:        322
L1D WRITEBACK ACCESS:          0  HIT:          0  MISS:          0
L1D PREFETCH  REQUESTED:    6599907  ISSUED:    6494984  USEFUL:         92  USELESS:        231
L1D AVERAGE MISS LATENCY: 37.4178 cycles
L1I TOTAL     ACCESS:   19812640  HIT:   16321467  MISS:    3491173
L1I LOAD      ACCESS:    9901697  HIT:    9888843  MISS:      12854
L1I RFO       ACCESS:          0  HIT:          0  MISS:          0
L1I PREFETCH  ACCESS:    9910943  HIT:    6432624  MISS:    3478319
L1I WRITEBACK ACCESS:          0  HIT:          0  MISS:          0
L1I PREFETCH  REQUESTED:   10133909  ISSUED:   10133897  USEFUL:    2196059  USELESS:    1282238
L1I AVERAGE MISS LATENCY: 14.4111 cycles
L2C TOTAL     ACCESS:    4909886  HIT:    4909622  MISS:        264
L2C LOAD      ACCESS:      12475  HIT:      12422  MISS:         53
L2C RFO       ACCESS:        112  HIT:        109  MISS:          3
L2C PREFETCH  ACCESS:    4896963  HIT:    4896756  MISS:        207
L2C WRITEBACK ACCESS:        336  HIT:        335  MISS:          1
L2C PREFETCH  REQUESTED:    3686526  ISSUED:    3685532  USEFUL:        130  USELESS:        109
L2C AVERAGE MISS LATENCY: 171.795 cycles
LLC TOTAL     ACCESS:     843618  HIT:     842733  MISS:        885
LLC LOAD      ACCESS:         53  HIT:         40  MISS:         13
LLC RFO       ACCESS:          3  HIT:          1  MISS:          2
LLC PREFETCH  ACCESS:     843485  HIT:     842618  MISS:        867
LLC WRITEBACK ACCESS:         77  HIT:         74  MISS:          3
LLC PREFETCH  REQUESTED:          0  ISSUED:          0  USEFUL:         11  USELESS:        205
LLC AVERAGE MISS LATENCY: 423.069 cycles
Major fault: 0 Minor fault: 1873
CPU 0 L1D next line prefetcher final stats

DRAM Statistics
 CHANNEL 0
 RQ ROW_BUFFER_HIT:        192  ROW_BUFFER_MISS:        690
 DBUS_CONGESTED:        653
 WQ ROW_BUFFER_HIT:         98  ROW_BUFFER_MISS:        529  FULL:          0

 AVG_CONGESTED_CYCLE: 6

CPU 0 Branch Prediction Accuracy: 99.8789% MPKI: 0.20388 Average ROB Occupancy at Mispredict: 274.98

Branch types
NOT_BRANCH: 41580695 83.1614%
BRANCH_DIRECT_JUMP: 461630 0.92326%
BRANCH_INDIRECT: 0 0%
BRANCH_CONDITIONAL: 5376437 10.7529%
BRANCH_DIRECT_CALL: 1175775 2.35155%
BRANCH_INDIRECT_CALL: 114840 0.22968%
BRANCH_RETURN: 1290625 2.58125%
BRANCH_OTHER: 0 0%

