Initialize SIGNATURE TABLE
ST_SET: 1
ST_WAY: 256
ST_TAG_BIT: 16
ST_TAG_MASK: ffff

Initialize PATTERN TABLE
PT_SET: 512
PT_WAY: 4
SIG_DELTA_BIT: 7
C_SIG_BIT: 4
C_DELTA_BIT: 4

Initialize PREFETCH FILTER
FILTER_SET: 1024

*** ChampSim Multicore Out-of-Order Simulator ***

Warmup Instructions: 50000000
Simulation Instructions: 50000000
Number of CPUs: 1
LLC sets: 2048
LLC ways: 16
Off-chip DRAM Size: 4096 MB Channels: 1 Width: 64-bit Data Rate: 3200 MT/s

CPU 0 runs /home/ChampSim-master//dpc3_traces/server_031.champsimtrace.xz
CPU 0 EPI prefetcher
CPU 0 L1D next line prefetcher
Heartbeat CPU 0 instructions: 10000003 cycles: 3518861 heartbeat IPC: 2.84183 cumulative IPC: 2.84183 (Simulation time: 0 hr 3 min 12 sec) 
Heartbeat CPU 0 instructions: 20000002 cycles: 7034944 heartbeat IPC: 2.84407 cumulative IPC: 2.84295 (Simulation time: 0 hr 6 min 24 sec) 
Heartbeat CPU 0 instructions: 30000002 cycles: 10551406 heartbeat IPC: 2.84377 cumulative IPC: 2.84322 (Simulation time: 0 hr 9 min 37 sec) 
Heartbeat CPU 0 instructions: 40000003 cycles: 14064402 heartbeat IPC: 2.84657 cumulative IPC: 2.84406 (Simulation time: 0 hr 13 min 8 sec) 
Heartbeat CPU 0 instructions: 50000001 cycles: 17579959 heartbeat IPC: 2.8445 cumulative IPC: 2.84415 (Simulation time: 0 hr 16 min 20 sec) 

Warmup complete CPU 0 instructions: 50000001 cycles: 17579959 (Simulation time: 0 hr 16 min 20 sec) 

Heartbeat CPU 0 instructions: 60000001 cycles: 25748589 heartbeat IPC: 1.2242 cumulative IPC: 1.2242 (Simulation time: 0 hr 19 min 5 sec) 
Heartbeat CPU 0 instructions: 70000002 cycles: 33973683 heartbeat IPC: 1.21579 cumulative IPC: 1.21998 (Simulation time: 0 hr 21 min 47 sec) 
*** Reached end of trace for Core: 0 Repeating trace: /home/ChampSim-master//dpc3_traces/server_031.champsimtrace.xz
Heartbeat CPU 0 instructions: 80000000 cycles: 42023928 heartbeat IPC: 1.2422 cumulative IPC: 1.2273 (Simulation time: 0 hr 24 min 21 sec) 
Heartbeat CPU 0 instructions: 90000003 cycles: 50078614 heartbeat IPC: 1.24151 cumulative IPC: 1.23082 (Simulation time: 0 hr 26 min 16 sec) 
Heartbeat CPU 0 instructions: 100000000 cycles: 58081763 heartbeat IPC: 1.24951 cumulative IPC: 1.23451 (Simulation time: 0 hr 27 min 20 sec) 
Finished CPU 0 instructions: 50000000 cycles: 40501806 cumulative IPC: 1.23451 (Simulation time: 0 hr 27 min 20 sec) 

ChampSim completed all CPUs

Region of Interest Statistics

CPU 0 cumulative IPC: 1.23451 instructions: 50000000 cycles: 40501806
L1D TOTAL     ACCESS:   20326546  HIT:   18421528  MISS:    1905018
L1D LOAD      ACCESS:    7152926  HIT:    6285355  MISS:     867571
L1D RFO       ACCESS:    6347726  HIT:    6056142  MISS:     291584
L1D PREFETCH  ACCESS:    6825894  HIT:    6080031  MISS:     745863
L1D WRITEBACK ACCESS:          0  HIT:          0  MISS:          0
L1D PREFETCH  REQUESTED:    7215940  ISSUED:    7118678  USEFUL:     179864  USELESS:     566002
L1D AVERAGE MISS LATENCY: 22 cycles
L1I TOTAL     ACCESS:   22019882  HIT:   18756311  MISS:    3263571
L1I LOAD      ACCESS:    9381794  HIT:    8523422  MISS:     858372
L1I RFO       ACCESS:          0  HIT:          0  MISS:          0
L1I PREFETCH  ACCESS:   12638088  HIT:   10232889  MISS:    2405199
L1I WRITEBACK ACCESS:          0  HIT:          0  MISS:          0
L1I PREFETCH  REQUESTED:   13857070  ISSUED:   13857070  USEFUL:    2161261  USELESS:     243960
L1I AVERAGE MISS LATENCY: 17.267 cycles
L2C TOTAL     ACCESS:    7712211  HIT:    7128314  MISS:     583897
L2C LOAD      ACCESS:    1574271  HIT:    1389553  MISS:     184718
L2C RFO       ACCESS:     289507  HIT:     250411  MISS:      39096
L2C PREFETCH  ACCESS:    5231627  HIT:    4872122  MISS:     359505
L2C WRITEBACK ACCESS:     616806  HIT:     616228  MISS:        578
L2C PREFETCH  REQUESTED:    4943218  ISSUED:    4934000  USEFUL:       7102  USELESS:     351829
L2C AVERAGE MISS LATENCY: 44.2849 cycles
LLC TOTAL     ACCESS:    2132230  HIT:    2051393  MISS:      80837
LLC LOAD      ACCESS:     184649  HIT:     165506  MISS:      19143
LLC RFO       ACCESS:      39096  HIT:      34860  MISS:       4236
LLC PREFETCH  ACCESS:    1836809  HIT:    1779923  MISS:      56886
LLC WRITEBACK ACCESS:      71676  HIT:      71104  MISS:        572
LLC PREFETCH  REQUESTED:          0  ISSUED:          0  USEFUL:       2739  USELESS:      54337
LLC AVERAGE MISS LATENCY: 158.725 cycles
Major fault: 0 Minor fault: 6041
CPU 0 L1I EPI prefetcher final stats
CPU 0 L1D next line prefetcher final stats

DRAM Statistics
 CHANNEL 0
 RQ ROW_BUFFER_HIT:      21831  ROW_BUFFER_MISS:      58430
 DBUS_CONGESTED:      31608
 WQ ROW_BUFFER_HIT:        807  ROW_BUFFER_MISS:       5188  FULL:          0

 AVG_CONGESTED_CYCLE: 4

CPU 0 Branch Prediction Accuracy: 99.6894% MPKI: 0.58048 Average ROB Occupancy at Mispredict: 117.894

Branch types
NOT_BRANCH: 40655598 81.3112%
BRANCH_DIRECT_JUMP: 546483 1.09297%
BRANCH_INDIRECT: 172433 0.344866%
BRANCH_CONDITIONAL: 6207578 12.4152%
BRANCH_DIRECT_CALL: 1018498 2.037%
BRANCH_INDIRECT_CALL: 190373 0.380746%
BRANCH_RETURN: 1208855 2.41771%
BRANCH_OTHER: 0 0%

