Initialize SIGNATURE TABLE
ST_SET: 1
ST_WAY: 256
ST_TAG_BIT: 16
ST_TAG_MASK: ffff

Initialize PATTERN TABLE
PT_SET: 512
PT_WAY: 4
SIG_DELTA_BIT: 7
C_SIG_BIT: 4
C_DELTA_BIT: 4

Initialize PREFETCH FILTER
FILTER_SET: 1024

*** ChampSim Multicore Out-of-Order Simulator ***

Warmup Instructions: 50000000
Simulation Instructions: 50000000
Number of CPUs: 1
LLC sets: 2048
LLC ways: 16
Off-chip DRAM Size: 4096 MB Channels: 1 Width: 64-bit Data Rate: 3200 MT/s

CPU 0 runs /home/ChampSim-master//dpc3_traces/server_030.champsimtrace.xz
L1I D-JOLT instruction prefetcher has been constructed!
CPU 0 L1D next line prefetcher
Heartbeat CPU 0 instructions: 10000003 cycles: 3506159 heartbeat IPC: 2.85212 cumulative IPC: 2.85212 (Simulation time: 0 hr 3 min 40 sec) 
Heartbeat CPU 0 instructions: 20000003 cycles: 7012553 heartbeat IPC: 2.85193 cumulative IPC: 2.85203 (Simulation time: 0 hr 7 min 10 sec) 
Heartbeat CPU 0 instructions: 30000000 cycles: 10520169 heartbeat IPC: 2.85094 cumulative IPC: 2.85167 (Simulation time: 0 hr 10 min 31 sec) 
Heartbeat CPU 0 instructions: 40000002 cycles: 14027121 heartbeat IPC: 2.85148 cumulative IPC: 2.85162 (Simulation time: 0 hr 13 min 53 sec) 
Heartbeat CPU 0 instructions: 50000002 cycles: 17536799 heartbeat IPC: 2.84926 cumulative IPC: 2.85115 (Simulation time: 0 hr 17 min 2 sec) 

Warmup complete CPU 0 instructions: 50000002 cycles: 17536799 (Simulation time: 0 hr 17 min 2 sec) 

Heartbeat CPU 0 instructions: 60000002 cycles: 24604507 heartbeat IPC: 1.41489 cumulative IPC: 1.41489 (Simulation time: 0 hr 20 min 6 sec) 
Heartbeat CPU 0 instructions: 70000000 cycles: 31674950 heartbeat IPC: 1.41434 cumulative IPC: 1.41461 (Simulation time: 0 hr 23 min 9 sec) 
Heartbeat CPU 0 instructions: 80000001 cycles: 38736101 heartbeat IPC: 1.4162 cumulative IPC: 1.41514 (Simulation time: 0 hr 26 min 6 sec) 
*** Reached end of trace for Core: 0 Repeating trace: /home/ChampSim-master//dpc3_traces/server_030.champsimtrace.xz
Heartbeat CPU 0 instructions: 90000002 cycles: 45795724 heartbeat IPC: 1.41651 cumulative IPC: 1.41548 (Simulation time: 0 hr 28 min 15 sec) 
Heartbeat CPU 0 instructions: 100000002 cycles: 52854403 heartbeat IPC: 1.4167 cumulative IPC: 1.41572 (Simulation time: 0 hr 29 min 28 sec) 
Finished CPU 0 instructions: 50000000 cycles: 35317604 cumulative IPC: 1.41572 (Simulation time: 0 hr 29 min 28 sec) 

ChampSim completed all CPUs

Region of Interest Statistics

CPU 0 cumulative IPC: 1.41572 instructions: 50000000 cycles: 35317604
L1D TOTAL     ACCESS:   19144234  HIT:   17068347  MISS:    2075887
L1D LOAD      ACCESS:    6761434  HIT:    5707438  MISS:    1053996
L1D RFO       ACCESS:    6168733  HIT:    5882128  MISS:     286605
L1D PREFETCH  ACCESS:    6214067  HIT:    5478781  MISS:     735286
L1D WRITEBACK ACCESS:          0  HIT:          0  MISS:          0
L1D PREFETCH  REQUESTED:    6814982  ISSUED:    6680956  USEFUL:     179913  USELESS:     555466
L1D AVERAGE MISS LATENCY: 19.3422 cycles
L1I TOTAL     ACCESS:   16626230  HIT:   13175715  MISS:    3450515
L1I LOAD      ACCESS:    9835249  HIT:    9789332  MISS:      45917
L1I RFO       ACCESS:          0  HIT:          0  MISS:          0
L1I PREFETCH  ACCESS:    6790981  HIT:    3386383  MISS:    3404598
L1I WRITEBACK ACCESS:          0  HIT:          0  MISS:          0
L1I PREFETCH  REQUESTED:    7341074  ISSUED:    7208498  USEFUL:    2947749  USELESS:     456873
L1I AVERAGE MISS LATENCY: 19.6827 cycles
L2C TOTAL     ACCESS:    7810347  HIT:    6910028  MISS:     900319
L2C LOAD      ACCESS:     931972  HIT:     785504  MISS:     146468
L2C RFO       ACCESS:     283586  HIT:     216353  MISS:      67233
L2C PREFETCH  ACCESS:    5979260  HIT:    5297628  MISS:     681632
L2C WRITEBACK ACCESS:     615529  HIT:     610543  MISS:       4986
L2C PREFETCH  REQUESTED:    5535265  ISSUED:    5524937  USEFUL:      10522  USELESS:     670968
L2C AVERAGE MISS LATENCY: 33.8471 cycles
LLC TOTAL     ACCESS:    2437337  HIT:    2414772  MISS:      22565
LLC LOAD      ACCESS:     146360  HIT:     143411  MISS:       2949
LLC RFO       ACCESS:      67208  HIT:      65386  MISS:       1822
LLC PREFETCH  ACCESS:    2099392  HIT:    2081725  MISS:      17667
LLC WRITEBACK ACCESS:     124377  HIT:     124250  MISS:        127
LLC PREFETCH  REQUESTED:          0  ISSUED:          0  USEFUL:        870  USELESS:      15962
LLC AVERAGE MISS LATENCY: 148.469 cycles
Major fault: 0 Minor fault: 2043
CPU 0 L1D next line prefetcher final stats

DRAM Statistics
 CHANNEL 0
 RQ ROW_BUFFER_HIT:       6851  ROW_BUFFER_MISS:      15587
 DBUS_CONGESTED:       6804
 WQ ROW_BUFFER_HIT:        191  ROW_BUFFER_MISS:       2521  FULL:          0

 AVG_CONGESTED_CYCLE: 5

CPU 0 Branch Prediction Accuracy: 99.8445% MPKI: 0.29148 Average ROB Occupancy at Mispredict: 167.349

Branch types
NOT_BRANCH: 40628075 81.2562%
BRANCH_DIRECT_JUMP: 490941 0.981882%
BRANCH_INDIRECT: 175854 0.351708%
BRANCH_CONDITIONAL: 6321415 12.6428%
BRANCH_DIRECT_CALL: 1002072 2.00414%
BRANCH_INDIRECT_CALL: 189783 0.379566%
BRANCH_RETURN: 1191851 2.3837%
BRANCH_OTHER: 0 0%

