Initialize SIGNATURE TABLE
ST_SET: 1
ST_WAY: 256
ST_TAG_BIT: 16
ST_TAG_MASK: ffff

Initialize PATTERN TABLE
PT_SET: 512
PT_WAY: 4
SIG_DELTA_BIT: 7
C_SIG_BIT: 4
C_DELTA_BIT: 4

Initialize PREFETCH FILTER
FILTER_SET: 1024

*** ChampSim Multicore Out-of-Order Simulator ***

Warmup Instructions: 50000000
Simulation Instructions: 50000000
Number of CPUs: 1
LLC sets: 2048
LLC ways: 16
Off-chip DRAM Size: 4096 MB Channels: 1 Width: 64-bit Data Rate: 3200 MT/s

CPU 0 runs /home/ChampSim-master//dpc3_traces/server_023.champsimtrace.xz
CPU 0 EPI prefetcher
CPU 0 L1D next line prefetcher
Heartbeat CPU 0 instructions: 10000000 cycles: 3498324 heartbeat IPC: 2.85851 cumulative IPC: 2.85851 (Simulation time: 0 hr 3 min 9 sec) 
Heartbeat CPU 0 instructions: 20000000 cycles: 6996110 heartbeat IPC: 2.85895 cumulative IPC: 2.85873 (Simulation time: 0 hr 6 min 16 sec) 
Heartbeat CPU 0 instructions: 30000001 cycles: 10487704 heartbeat IPC: 2.86402 cumulative IPC: 2.86049 (Simulation time: 0 hr 9 min 21 sec) 
Heartbeat CPU 0 instructions: 40000003 cycles: 13985324 heartbeat IPC: 2.85909 cumulative IPC: 2.86014 (Simulation time: 0 hr 12 min 25 sec) 
Heartbeat CPU 0 instructions: 50000001 cycles: 17484057 heartbeat IPC: 2.85818 cumulative IPC: 2.85975 (Simulation time: 0 hr 15 min 31 sec) 

Warmup complete CPU 0 instructions: 50000001 cycles: 17484057 (Simulation time: 0 hr 15 min 31 sec) 

Heartbeat CPU 0 instructions: 60000002 cycles: 24201392 heartbeat IPC: 1.48869 cumulative IPC: 1.48869 (Simulation time: 0 hr 18 min 28 sec) 
Heartbeat CPU 0 instructions: 70000002 cycles: 31131906 heartbeat IPC: 1.44289 cumulative IPC: 1.46543 (Simulation time: 0 hr 21 min 18 sec) 
Heartbeat CPU 0 instructions: 80000000 cycles: 37955395 heartbeat IPC: 1.46553 cumulative IPC: 1.46546 (Simulation time: 0 hr 24 min 8 sec) 
Heartbeat CPU 0 instructions: 90000000 cycles: 44838429 heartbeat IPC: 1.45285 cumulative IPC: 1.46229 (Simulation time: 0 hr 26 min 37 sec) 
Heartbeat CPU 0 instructions: 100000001 cycles: 51643264 heartbeat IPC: 1.46954 cumulative IPC: 1.46373 (Simulation time: 0 hr 28 min 46 sec) 
Finished CPU 0 instructions: 50000000 cycles: 34159207 cumulative IPC: 1.46373 (Simulation time: 0 hr 28 min 46 sec) 

ChampSim completed all CPUs

Region of Interest Statistics

CPU 0 cumulative IPC: 1.46373 instructions: 50000000 cycles: 34159207
L1D TOTAL     ACCESS:   19343105  HIT:   17876226  MISS:    1466879
L1D LOAD      ACCESS:    6842412  HIT:    6180690  MISS:     661722
L1D RFO       ACCESS:    5981550  HIT:    5720144  MISS:     261406
L1D PREFETCH  ACCESS:    6519143  HIT:    5975392  MISS:     543751
L1D WRITEBACK ACCESS:          0  HIT:          0  MISS:          0
L1D PREFETCH  REQUESTED:    6892762  ISSUED:    6771111  USEFUL:     129117  USELESS:     414643
L1D AVERAGE MISS LATENCY: 24.4463 cycles
L1I TOTAL     ACCESS:   30116846  HIT:   27178489  MISS:    2938357
L1I LOAD      ACCESS:    9428857  HIT:    9376754  MISS:      52103
L1I RFO       ACCESS:          0  HIT:          0  MISS:          0
L1I PREFETCH  ACCESS:   20687989  HIT:   17801735  MISS:    2886254
L1I WRITEBACK ACCESS:          0  HIT:          0  MISS:          0
L1I PREFETCH  REQUESTED:   27284787  ISSUED:   27284787  USEFUL:    2391943  USELESS:     494259
L1I AVERAGE MISS LATENCY: 19.0584 cycles
L2C TOTAL     ACCESS:    6100104  HIT:    5419098  MISS:     681006
L2C LOAD      ACCESS:     626250  HIT:     507571  MISS:     118679
L2C RFO       ACCESS:     259361  HIT:     168624  MISS:      90737
L2C PREFETCH  ACCESS:    4715212  HIT:    4245667  MISS:     469545
L2C WRITEBACK ACCESS:     499281  HIT:     497236  MISS:       2045
L2C PREFETCH  REQUESTED:    5422295  ISSUED:    5411838  USEFUL:      14559  USELESS:     454707
L2C AVERAGE MISS LATENCY: 42.5932 cycles
LLC TOTAL     ACCESS:    2240088  HIT:    2186408  MISS:      53680
LLC LOAD      ACCESS:     118397  HIT:     111869  MISS:       6528
LLC RFO       ACCESS:      90730  HIT:      72807  MISS:      17923
LLC PREFETCH  ACCESS:    1890598  HIT:    1861669  MISS:      28929
LLC WRITEBACK ACCESS:     140363  HIT:     140063  MISS:        300
LLC PREFETCH  REQUESTED:          0  ISSUED:          0  USEFUL:       2558  USELESS:      26102
LLC AVERAGE MISS LATENCY: 182.107 cycles
Major fault: 0 Minor fault: 2770
CPU 0 L1I EPI prefetcher final stats
CPU 0 L1D next line prefetcher final stats

DRAM Statistics
 CHANNEL 0
 RQ ROW_BUFFER_HIT:      15878  ROW_BUFFER_MISS:      37486
 DBUS_CONGESTED:      32524
 WQ ROW_BUFFER_HIT:       2551  ROW_BUFFER_MISS:      19125  FULL:          0

 AVG_CONGESTED_CYCLE: 6

CPU 0 Branch Prediction Accuracy: 99.6798% MPKI: 0.58608 Average ROB Occupancy at Mispredict: 149.351

Branch types
NOT_BRANCH: 40848346 81.6967%
BRANCH_DIRECT_JUMP: 548372 1.09674%
BRANCH_INDIRECT: 189802 0.379604%
BRANCH_CONDITIONAL: 6372772 12.7455%
BRANCH_DIRECT_CALL: 862207 1.72441%
BRANCH_INDIRECT_CALL: 158149 0.316298%
BRANCH_RETURN: 1020345 2.04069%
BRANCH_OTHER: 0 0%

