Initialize SIGNATURE TABLE
ST_SET: 1
ST_WAY: 256
ST_TAG_BIT: 16
ST_TAG_MASK: ffff

Initialize PATTERN TABLE
PT_SET: 512
PT_WAY: 4
SIG_DELTA_BIT: 7
C_SIG_BIT: 4
C_DELTA_BIT: 4

Initialize PREFETCH FILTER
FILTER_SET: 1024

*** ChampSim Multicore Out-of-Order Simulator ***

Warmup Instructions: 50000000
Simulation Instructions: 50000000
Number of CPUs: 1
LLC sets: 2048
LLC ways: 16
Off-chip DRAM Size: 4096 MB Channels: 1 Width: 64-bit Data Rate: 3200 MT/s

CPU 0 runs /home/ChampSim-master//dpc3_traces/server_014.champsimtrace.xz
L1I D-JOLT instruction prefetcher has been constructed!
CPU 0 L1D next line prefetcher
Heartbeat CPU 0 instructions: 10000003 cycles: 3519562 heartbeat IPC: 2.84126 cumulative IPC: 2.84126 (Simulation time: 0 hr 2 min 56 sec) 
Heartbeat CPU 0 instructions: 20000000 cycles: 7106448 heartbeat IPC: 2.78793 cumulative IPC: 2.81435 (Simulation time: 0 hr 6 min 16 sec) 
Heartbeat CPU 0 instructions: 30000001 cycles: 10647939 heartbeat IPC: 2.82367 cumulative IPC: 2.81745 (Simulation time: 0 hr 9 min 50 sec) 
Heartbeat CPU 0 instructions: 40000003 cycles: 14196161 heartbeat IPC: 2.81831 cumulative IPC: 2.81766 (Simulation time: 0 hr 12 min 58 sec) 
Heartbeat CPU 0 instructions: 50000000 cycles: 17744835 heartbeat IPC: 2.81795 cumulative IPC: 2.81772 (Simulation time: 0 hr 15 min 48 sec) 

Warmup complete CPU 0 instructions: 50000001 cycles: 17744836 (Simulation time: 0 hr 15 min 48 sec) 

Heartbeat CPU 0 instructions: 60000000 cycles: 24032550 heartbeat IPC: 1.5904 cumulative IPC: 1.5904 (Simulation time: 0 hr 18 min 26 sec) 
Heartbeat CPU 0 instructions: 70000003 cycles: 30324916 heartbeat IPC: 1.58923 cumulative IPC: 1.58982 (Simulation time: 0 hr 21 min 4 sec) 
*** Reached end of trace for Core: 0 Repeating trace: /home/ChampSim-master//dpc3_traces/server_014.champsimtrace.xz
Heartbeat CPU 0 instructions: 80000001 cycles: 36891475 heartbeat IPC: 1.52287 cumulative IPC: 1.56685 (Simulation time: 0 hr 23 min 44 sec) 
Heartbeat CPU 0 instructions: 90000003 cycles: 44379105 heartbeat IPC: 1.33554 cumulative IPC: 1.50182 (Simulation time: 0 hr 25 min 47 sec) 
Heartbeat CPU 0 instructions: 100000001 cycles: 50862134 heartbeat IPC: 1.54249 cumulative IPC: 1.50979 (Simulation time: 0 hr 26 min 53 sec) 
Finished CPU 0 instructions: 50000000 cycles: 33117298 cumulative IPC: 1.50979 (Simulation time: 0 hr 26 min 53 sec) 

ChampSim completed all CPUs

Region of Interest Statistics

CPU 0 cumulative IPC: 1.50979 instructions: 50000000 cycles: 33117298
L1D TOTAL     ACCESS:   21630963  HIT:   21560118  MISS:      70845
L1D LOAD      ACCESS:    6675686  HIT:    6648747  MISS:      26939
L1D RFO       ACCESS:    8412743  HIT:    8380681  MISS:      32062
L1D PREFETCH  ACCESS:    6542534  HIT:    6530690  MISS:      11844
L1D WRITEBACK ACCESS:          0  HIT:          0  MISS:          0
L1D PREFETCH  REQUESTED:    6680286  ISSUED:    6570420  USEFUL:       3297  USELESS:       8547
L1D AVERAGE MISS LATENCY: 227.463 cycles
L1I TOTAL     ACCESS:   20060162  HIT:   15910651  MISS:    4149511
L1I LOAD      ACCESS:    9805053  HIT:    9781484  MISS:      23569
L1I RFO       ACCESS:          0  HIT:          0  MISS:          0
L1I PREFETCH  ACCESS:   10255109  HIT:    6129167  MISS:    4125942
L1I WRITEBACK ACCESS:          0  HIT:          0  MISS:          0
L1I PREFETCH  REQUESTED:   10943508  ISSUED:   10616279  USEFUL:    2723505  USELESS:    1402416
L1I AVERAGE MISS LATENCY: 14.8818 cycles
L2C TOTAL     ACCESS:    5962184  HIT:    5890399  MISS:      71785
L2C LOAD      ACCESS:      44028  HIT:      25089  MISS:      18939
L2C RFO       ACCESS:      32018  HIT:       1066  MISS:      30952
L2C PREFETCH  ACCESS:    5847772  HIT:    5825890  MISS:      21882
L2C WRITEBACK ACCESS:      38366  HIT:      38354  MISS:         12
L2C PREFETCH  REQUESTED:    4082021  ISSUED:    4078229  USEFUL:       1505  USELESS:      20198
L2C AVERAGE MISS LATENCY: 258.223 cycles
LLC TOTAL     ACCESS:     832824  HIT:     767939  MISS:      64885
LLC LOAD      ACCESS:      17901  HIT:       5067  MISS:      12834
LLC RFO       ACCESS:      30952  HIT:       4733  MISS:      26219
LLC PREFETCH  ACCESS:     749085  HIT:     723363  MISS:      25722
LLC WRITEBACK ACCESS:      34886  HIT:      34776  MISS:        110
LLC PREFETCH  REQUESTED:          0  ISSUED:          0  USEFUL:       4296  USELESS:      22651
LLC AVERAGE MISS LATENCY: 311.335 cycles
Major fault: 0 Minor fault: 1919
CPU 0 L1D next line prefetcher final stats

DRAM Statistics
 CHANNEL 0
 RQ ROW_BUFFER_HIT:      28489  ROW_BUFFER_MISS:      36281
 DBUS_CONGESTED:      64564
 WQ ROW_BUFFER_HIT:       8313  ROW_BUFFER_MISS:      23840  FULL:          0

 AVG_CONGESTED_CYCLE: 6

CPU 0 Branch Prediction Accuracy: 99.7719% MPKI: 0.38824 Average ROB Occupancy at Mispredict: 155.663

Branch types
NOT_BRANCH: 41489005 82.978%
BRANCH_DIRECT_JUMP: 449417 0.898834%
BRANCH_INDIRECT: 2330 0.00466%
BRANCH_CONDITIONAL: 5470015 10.94%
BRANCH_DIRECT_CALL: 1172188 2.34438%
BRANCH_INDIRECT_CALL: 122383 0.244766%
BRANCH_RETURN: 1294555 2.58911%
BRANCH_OTHER: 0 0%

