Initialize SIGNATURE TABLE
ST_SET: 1
ST_WAY: 256
ST_TAG_BIT: 16
ST_TAG_MASK: ffff

Initialize PATTERN TABLE
PT_SET: 512
PT_WAY: 4
SIG_DELTA_BIT: 7
C_SIG_BIT: 4
C_DELTA_BIT: 4

Initialize PREFETCH FILTER
FILTER_SET: 1024

*** ChampSim Multicore Out-of-Order Simulator ***

Warmup Instructions: 50000000
Simulation Instructions: 50000000
Number of CPUs: 1
LLC sets: 2048
LLC ways: 16
Off-chip DRAM Size: 4096 MB Channels: 1 Width: 64-bit Data Rate: 3200 MT/s

CPU 0 runs /home/ChampSim-master//dpc3_traces/server_038.champsimtrace.xz
CPU 0 EPI prefetcher
CPU 0 L1D next line prefetcher
Heartbeat CPU 0 instructions: 10000001 cycles: 3320343 heartbeat IPC: 3.01174 cumulative IPC: 3.01174 (Simulation time: 0 hr 3 min 12 sec) 
Heartbeat CPU 0 instructions: 20000003 cycles: 6643728 heartbeat IPC: 3.00898 cumulative IPC: 3.01036 (Simulation time: 0 hr 6 min 20 sec) 
Heartbeat CPU 0 instructions: 30000003 cycles: 9963187 heartbeat IPC: 3.01254 cumulative IPC: 3.01109 (Simulation time: 0 hr 9 min 27 sec) 
Heartbeat CPU 0 instructions: 40000001 cycles: 13286853 heartbeat IPC: 3.00873 cumulative IPC: 3.01049 (Simulation time: 0 hr 12 min 34 sec) 
Heartbeat CPU 0 instructions: 50000001 cycles: 16608813 heartbeat IPC: 3.01027 cumulative IPC: 3.01045 (Simulation time: 0 hr 15 min 37 sec) 

Warmup complete CPU 0 instructions: 50000001 cycles: 16608813 (Simulation time: 0 hr 15 min 37 sec) 

Heartbeat CPU 0 instructions: 60000002 cycles: 23044382 heartbeat IPC: 1.55386 cumulative IPC: 1.55386 (Simulation time: 0 hr 18 min 35 sec) 
Heartbeat CPU 0 instructions: 70000001 cycles: 29443555 heartbeat IPC: 1.5627 cumulative IPC: 1.55827 (Simulation time: 0 hr 21 min 29 sec) 
Heartbeat CPU 0 instructions: 80000000 cycles: 35851710 heartbeat IPC: 1.56051 cumulative IPC: 1.55902 (Simulation time: 0 hr 24 min 22 sec) 
Heartbeat CPU 0 instructions: 90000001 cycles: 42270202 heartbeat IPC: 1.558 cumulative IPC: 1.55876 (Simulation time: 0 hr 26 min 48 sec) 
*** Reached end of trace for Core: 0 Repeating trace: /home/ChampSim-master//dpc3_traces/server_038.champsimtrace.xz
Heartbeat CPU 0 instructions: 100000002 cycles: 48696076 heartbeat IPC: 1.55621 cumulative IPC: 1.55825 (Simulation time: 0 hr 28 min 26 sec) 
Finished CPU 0 instructions: 50000001 cycles: 32087263 cumulative IPC: 1.55825 (Simulation time: 0 hr 28 min 26 sec) 

ChampSim completed all CPUs

Region of Interest Statistics

CPU 0 cumulative IPC: 1.55825 instructions: 50000001 cycles: 32087263
L1D TOTAL     ACCESS:   18718872  HIT:   17736454  MISS:     982418
L1D LOAD      ACCESS:    6371828  HIT:    5878380  MISS:     493448
L1D RFO       ACCESS:    6211568  HIT:    6147286  MISS:      64282
L1D PREFETCH  ACCESS:    6135476  HIT:    5710788  MISS:     424688
L1D WRITEBACK ACCESS:          0  HIT:          0  MISS:          0
L1D PREFETCH  REQUESTED:    6409214  ISSUED:    6257406  USEFUL:     117936  USELESS:     306755
L1D AVERAGE MISS LATENCY: 29.3752 cycles
L1I TOTAL     ACCESS:   26190218  HIT:   21893971  MISS:    4296247
L1I LOAD      ACCESS:    9271763  HIT:    9047574  MISS:     224189
L1I RFO       ACCESS:          0  HIT:          0  MISS:          0
L1I PREFETCH  ACCESS:   16918455  HIT:   12846397  MISS:    4072058
L1I WRITEBACK ACCESS:          0  HIT:          0  MISS:          0
L1I PREFETCH  REQUESTED:   18714583  ISSUED:   18714583  USEFUL:    3800039  USELESS:     271993
L1I AVERAGE MISS LATENCY: 14.801 cycles
L2C TOTAL     ACCESS:    8138401  HIT:    7816031  MISS:     322370
L2C LOAD      ACCESS:     676851  HIT:     532865  MISS:     143986
L2C RFO       ACCESS:      64007  HIT:      35519  MISS:      28488
L2C PREFETCH  ACCESS:    7105814  HIT:    6956705  MISS:     149109
L2C WRITEBACK ACCESS:     291729  HIT:     290942  MISS:        787
L2C PREFETCH  REQUESTED:    6319458  ISSUED:    6312501  USEFUL:       6610  USELESS:     142331
L2C AVERAGE MISS LATENCY: 45.1808 cycles
LLC TOTAL     ACCESS:    1469712  HIT:    1419726  MISS:      49986
LLC LOAD      ACCESS:     143954  HIT:     131036  MISS:      12918
LLC RFO       ACCESS:      28487  HIT:      23461  MISS:       5026
LLC PREFETCH  ACCESS:    1150017  HIT:    1118377  MISS:      31640
LLC WRITEBACK ACCESS:     147254  HIT:     146852  MISS:        402
LLC PREFETCH  REQUESTED:          0  ISSUED:          0  USEFUL:       2802  USELESS:      28875
LLC AVERAGE MISS LATENCY: 166.02 cycles
Major fault: 0 Minor fault: 5526
CPU 0 L1I EPI prefetcher final stats
CPU 0 L1D next line prefetcher final stats

DRAM Statistics
 CHANNEL 0
 RQ ROW_BUFFER_HIT:       7816  ROW_BUFFER_MISS:      41763
 DBUS_CONGESTED:      19814
 WQ ROW_BUFFER_HIT:       1071  ROW_BUFFER_MISS:      10916  FULL:          0

 AVG_CONGESTED_CYCLE: 4

CPU 0 Branch Prediction Accuracy: 99.9279% MPKI: 0.12968 Average ROB Occupancy at Mispredict: 240.176

Branch types
NOT_BRANCH: 41006276 82.0126%
BRANCH_DIRECT_JUMP: 541913 1.08383%
BRANCH_INDIRECT: 59690 0.11938%
BRANCH_CONDITIONAL: 5915840 11.8317%
BRANCH_DIRECT_CALL: 1003586 2.00717%
BRANCH_INDIRECT_CALL: 234499 0.468998%
BRANCH_RETURN: 1238071 2.47614%
BRANCH_OTHER: 0 0%

