Initialize SIGNATURE TABLE
ST_SET: 1
ST_WAY: 256
ST_TAG_BIT: 16
ST_TAG_MASK: ffff

Initialize PATTERN TABLE
PT_SET: 512
PT_WAY: 4
SIG_DELTA_BIT: 7
C_SIG_BIT: 4
C_DELTA_BIT: 4

Initialize PREFETCH FILTER
FILTER_SET: 1024

*** ChampSim Multicore Out-of-Order Simulator ***

Warmup Instructions: 50000000
Simulation Instructions: 50000000
Number of CPUs: 1
LLC sets: 2048
LLC ways: 16
Off-chip DRAM Size: 4096 MB Channels: 1 Width: 64-bit Data Rate: 3200 MT/s

CPU 0 runs /home/ChampSim-master//dpc3_traces/server_004.champsimtrace.xz
CPU 0 EPI prefetcher
CPU 0 L1D next line prefetcher
Heartbeat CPU 0 instructions: 10000002 cycles: 3229256 heartbeat IPC: 3.09669 cumulative IPC: 3.09669 (Simulation time: 0 hr 3 min 45 sec) 
Heartbeat CPU 0 instructions: 20000002 cycles: 6564025 heartbeat IPC: 2.99871 cumulative IPC: 3.04691 (Simulation time: 0 hr 6 min 59 sec) 
Heartbeat CPU 0 instructions: 30000000 cycles: 11681277 heartbeat IPC: 1.95417 cumulative IPC: 2.56821 (Simulation time: 0 hr 11 min 39 sec) 
Heartbeat CPU 0 instructions: 40000003 cycles: 15429921 heartbeat IPC: 2.66763 cumulative IPC: 2.59237 (Simulation time: 0 hr 15 min 21 sec) 
Heartbeat CPU 0 instructions: 50000003 cycles: 18658326 heartbeat IPC: 3.0975 cumulative IPC: 2.67977 (Simulation time: 0 hr 18 min 32 sec) 

Warmup complete CPU 0 instructions: 50000003 cycles: 18658326 (Simulation time: 0 hr 18 min 32 sec) 

Heartbeat CPU 0 instructions: 60000002 cycles: 27229069 heartbeat IPC: 1.16676 cumulative IPC: 1.16676 (Simulation time: 0 hr 21 min 23 sec) 
Heartbeat CPU 0 instructions: 70000000 cycles: 35247795 heartbeat IPC: 1.24708 cumulative IPC: 1.20558 (Simulation time: 0 hr 24 min 12 sec) 
Heartbeat CPU 0 instructions: 80000001 cycles: 56123466 heartbeat IPC: 0.479027 cumulative IPC: 0.800744 (Simulation time: 0 hr 27 min 53 sec) 
Heartbeat CPU 0 instructions: 90000003 cycles: 71472204 heartbeat IPC: 0.651519 cumulative IPC: 0.757377 (Simulation time: 0 hr 29 min 32 sec) 
Heartbeat CPU 0 instructions: 100000003 cycles: 80061960 heartbeat IPC: 1.16418 cumulative IPC: 0.814284 (Simulation time: 0 hr 30 min 4 sec) 
Finished CPU 0 instructions: 50000000 cycles: 61403634 cumulative IPC: 0.814284 (Simulation time: 0 hr 30 min 4 sec) 

ChampSim completed all CPUs

Region of Interest Statistics

CPU 0 cumulative IPC: 0.814284 instructions: 50000000 cycles: 61403634
L1D TOTAL     ACCESS:   21618347  HIT:   17547276  MISS:    4071071
L1D LOAD      ACCESS:    8592866  HIT:    6574032  MISS:    2018834
L1D RFO       ACCESS:    4642513  HIT:    4535701  MISS:     106812
L1D PREFETCH  ACCESS:    8382968  HIT:    6437543  MISS:    1945425
L1D WRITEBACK ACCESS:          0  HIT:          0  MISS:          0
L1D PREFETCH  REQUESTED:    8627800  ISSUED:    8538545  USEFUL:     105818  USELESS:    1839599
L1D AVERAGE MISS LATENCY: 22.8526 cycles
L1I TOTAL     ACCESS:   32878379  HIT:   31406425  MISS:    1471954
L1I LOAD      ACCESS:   10712975  HIT:   10612907  MISS:     100068
L1I RFO       ACCESS:          0  HIT:          0  MISS:          0
L1I PREFETCH  ACCESS:   22165404  HIT:   20793518  MISS:    1371886
L1I WRITEBACK ACCESS:          0  HIT:          0  MISS:          0
L1I PREFETCH  REQUESTED:   27174541  ISSUED:   27174541  USEFUL:    1001142  USELESS:     370691
L1I AVERAGE MISS LATENCY: 35.2344 cycles
L2C TOTAL     ACCESS:    7022527  HIT:    5982958  MISS:    1039569
L2C LOAD      ACCESS:    2067958  HIT:    1818966  MISS:     248992
L2C RFO       ACCESS:     105579  HIT:      57140  MISS:      48439
L2C PREFETCH  ACCESS:    4603957  HIT:    3863039  MISS:     740918
L2C WRITEBACK ACCESS:     245033  HIT:     243813  MISS:       1220
L2C PREFETCH  REQUESTED:    6528327  ISSUED:    6524429  USEFUL:      25997  USELESS:     714304
L2C AVERAGE MISS LATENCY: 58.2892 cycles
LLC TOTAL     ACCESS:    2323862  HIT:    2084077  MISS:     239785
LLC LOAD      ACCESS:     247682  HIT:     200506  MISS:      47176
LLC RFO       ACCESS:      48435  HIT:      32923  MISS:      15512
LLC PREFETCH  ACCESS:    1887693  HIT:    1710927  MISS:     176766
LLC WRITEBACK ACCESS:     140052  HIT:     139721  MISS:        331
LLC PREFETCH  REQUESTED:          0  ISSUED:          0  USEFUL:      24188  USELESS:     152550
LLC AVERAGE MISS LATENCY: 172.359 cycles
Major fault: 0 Minor fault: 7595
CPU 0 L1I EPI prefetcher final stats
CPU 0 L1D next line prefetcher final stats

DRAM Statistics
 CHANNEL 0
 RQ ROW_BUFFER_HIT:      49530  ROW_BUFFER_MISS:     189885
 DBUS_CONGESTED:      98935
 WQ ROW_BUFFER_HIT:      11905  ROW_BUFFER_MISS:      42853  FULL:          0

 AVG_CONGESTED_CYCLE: 5

CPU 0 Branch Prediction Accuracy: 98.1603% MPKI: 3.89124 Average ROB Occupancy at Mispredict: 66.1514

Branch types
NOT_BRANCH: 39423760 78.8475%
BRANCH_DIRECT_JUMP: 551642 1.10328%
BRANCH_INDIRECT: 139368 0.278736%
BRANCH_CONDITIONAL: 7920859 15.8417%
BRANCH_DIRECT_CALL: 776072 1.55214%
BRANCH_INDIRECT_CALL: 194644 0.389288%
BRANCH_RETURN: 993311 1.98662%
BRANCH_OTHER: 0 0%

