Initialize SIGNATURE TABLE
ST_SET: 1
ST_WAY: 256
ST_TAG_BIT: 16
ST_TAG_MASK: ffff

Initialize PATTERN TABLE
PT_SET: 512
PT_WAY: 4
SIG_DELTA_BIT: 7
C_SIG_BIT: 4
C_DELTA_BIT: 4

Initialize PREFETCH FILTER
FILTER_SET: 1024

*** ChampSim Multicore Out-of-Order Simulator ***

Warmup Instructions: 50000000
Simulation Instructions: 50000000
Number of CPUs: 1
LLC sets: 2048
LLC ways: 16
Off-chip DRAM Size: 4096 MB Channels: 1 Width: 64-bit Data Rate: 3200 MT/s

CPU 0 runs /home/ChampSim-master//dpc3_traces/server_026.champsimtrace.xz
L1I D-JOLT instruction prefetcher has been constructed!
CPU 0 L1D next line prefetcher
Heartbeat CPU 0 instructions: 10000000 cycles: 3522806 heartbeat IPC: 2.83865 cumulative IPC: 2.83865 (Simulation time: 0 hr 2 min 35 sec) 
Heartbeat CPU 0 instructions: 20000002 cycles: 7051186 heartbeat IPC: 2.83416 cumulative IPC: 2.8364 (Simulation time: 0 hr 5 min 19 sec) 
Heartbeat CPU 0 instructions: 30000000 cycles: 10569840 heartbeat IPC: 2.842 cumulative IPC: 2.83826 (Simulation time: 0 hr 7 min 47 sec) 
Heartbeat CPU 0 instructions: 40000003 cycles: 14097827 heartbeat IPC: 2.83448 cumulative IPC: 2.83732 (Simulation time: 0 hr 10 min 44 sec) 
Heartbeat CPU 0 instructions: 50000000 cycles: 17618370 heartbeat IPC: 2.84047 cumulative IPC: 2.83795 (Simulation time: 0 hr 13 min 31 sec) 

Warmup complete CPU 0 instructions: 50000004 cycles: 17618371 (Simulation time: 0 hr 13 min 31 sec) 

*** Reached end of trace for Core: 0 Repeating trace: /home/ChampSim-master//dpc3_traces/server_026.champsimtrace.xz
Heartbeat CPU 0 instructions: 60000000 cycles: 24533640 heartbeat IPC: 1.44608 cumulative IPC: 1.44607 (Simulation time: 0 hr 15 min 59 sec) 
Heartbeat CPU 0 instructions: 70000003 cycles: 31337868 heartbeat IPC: 1.46967 cumulative IPC: 1.45778 (Simulation time: 0 hr 18 min 20 sec) 
Heartbeat CPU 0 instructions: 80000002 cycles: 38236545 heartbeat IPC: 1.44955 cumulative IPC: 1.45503 (Simulation time: 0 hr 20 min 37 sec) 
Heartbeat CPU 0 instructions: 90000002 cycles: 45044116 heartbeat IPC: 1.46895 cumulative IPC: 1.45848 (Simulation time: 0 hr 22 min 52 sec) 
Heartbeat CPU 0 instructions: 100000000 cycles: 51917603 heartbeat IPC: 1.45487 cumulative IPC: 1.45776 (Simulation time: 0 hr 24 min 16 sec) 
Finished CPU 0 instructions: 50000000 cycles: 34299233 cumulative IPC: 1.45776 (Simulation time: 0 hr 24 min 16 sec) 

ChampSim completed all CPUs

Region of Interest Statistics

CPU 0 cumulative IPC: 1.45776 instructions: 50000000 cycles: 34299233
L1D TOTAL     ACCESS:   19756354  HIT:   18111374  MISS:    1644980
L1D LOAD      ACCESS:    6925661  HIT:    6196998  MISS:     728663
L1D RFO       ACCESS:    6240839  HIT:    5954647  MISS:     286192
L1D PREFETCH  ACCESS:    6589854  HIT:    5959729  MISS:     630125
L1D WRITEBACK ACCESS:          0  HIT:          0  MISS:          0
L1D PREFETCH  REQUESTED:    6973217  ISSUED:    6830984  USEFUL:     152422  USELESS:     477713
L1D AVERAGE MISS LATENCY: 24.3328 cycles
L1I TOTAL     ACCESS:   14544915  HIT:   11420942  MISS:    3123973
L1I LOAD      ACCESS:    9504406  HIT:    9463233  MISS:      41173
L1I RFO       ACCESS:          0  HIT:          0  MISS:          0
L1I PREFETCH  ACCESS:    5040509  HIT:    1957709  MISS:    3082800
L1I WRITEBACK ACCESS:          0  HIT:          0  MISS:          0
L1I PREFETCH  REQUESTED:    5263864  ISSUED:    5237254  USEFUL:    2742095  USELESS:     340675
L1I AVERAGE MISS LATENCY: 19.9613 cycles
L2C TOTAL     ACCESS:    6660831  HIT:    5752716  MISS:     908115
L2C LOAD      ACCESS:     714080  HIT:     564076  MISS:     150004
L2C RFO       ACCESS:     284549  HIT:     183587  MISS:     100962
L2C PREFETCH  ACCESS:    5101014  HIT:    4448290  MISS:     652724
L2C WRITEBACK ACCESS:     561188  HIT:     556763  MISS:       4425
L2C PREFETCH  REQUESTED:    4574740  ISSUED:    4567735  USEFUL:      13676  USELESS:     638858
L2C AVERAGE MISS LATENCY: 37.4522 cycles
LLC TOTAL     ACCESS:    2341085  HIT:    2304102  MISS:      36983
LLC LOAD      ACCESS:     149760  HIT:     146168  MISS:       3592
LLC RFO       ACCESS:     100958  HIT:      86408  MISS:      14550
LLC PREFETCH  ACCESS:    1919572  HIT:    1900928  MISS:      18644
LLC WRITEBACK ACCESS:     170795  HIT:     170598  MISS:        197
LLC PREFETCH  REQUESTED:          0  ISSUED:          0  USEFUL:       1094  USELESS:      17305
LLC AVERAGE MISS LATENCY: 187.498 cycles
Major fault: 0 Minor fault: 2174
CPU 0 L1D next line prefetcher final stats

DRAM Statistics
 CHANNEL 0
 RQ ROW_BUFFER_HIT:      12536  ROW_BUFFER_MISS:      24246
 DBUS_CONGESTED:      23432
 WQ ROW_BUFFER_HIT:       1542  ROW_BUFFER_MISS:      14693  FULL:          0

 AVG_CONGESTED_CYCLE: 6

CPU 0 Branch Prediction Accuracy: 99.822% MPKI: 0.32584 Average ROB Occupancy at Mispredict: 201.717

Branch types
NOT_BRANCH: 40848578 81.6972%
BRANCH_DIRECT_JUMP: 522045 1.04409%
BRANCH_INDIRECT: 204034 0.408068%
BRANCH_CONDITIONAL: 6212963 12.4259%
BRANCH_DIRECT_CALL: 932393 1.86479%
BRANCH_INDIRECT_CALL: 173764 0.347528%
BRANCH_RETURN: 1106152 2.2123%
BRANCH_OTHER: 0 0%

