Initialize SIGNATURE TABLE
ST_SET: 1
ST_WAY: 256
ST_TAG_BIT: 16
ST_TAG_MASK: ffff

Initialize PATTERN TABLE
PT_SET: 512
PT_WAY: 4
SIG_DELTA_BIT: 7
C_SIG_BIT: 4
C_DELTA_BIT: 4

Initialize PREFETCH FILTER
FILTER_SET: 1024

*** ChampSim Multicore Out-of-Order Simulator ***

Warmup Instructions: 50000000
Simulation Instructions: 50000000
Number of CPUs: 1
LLC sets: 2048
LLC ways: 16
Off-chip DRAM Size: 4096 MB Channels: 1 Width: 64-bit Data Rate: 3200 MT/s

CPU 0 runs /home/ChampSim-master//dpc3_traces/server_002.champsimtrace.xz
L1I D-JOLT instruction prefetcher has been constructed!
CPU 0 L1D next line prefetcher
Heartbeat CPU 0 instructions: 10000000 cycles: 3581237 heartbeat IPC: 2.79233 cumulative IPC: 2.79233 (Simulation time: 0 hr 2 min 33 sec) 
Heartbeat CPU 0 instructions: 20000002 cycles: 7170101 heartbeat IPC: 2.7864 cumulative IPC: 2.78936 (Simulation time: 0 hr 5 min 8 sec) 
Heartbeat CPU 0 instructions: 30000000 cycles: 10710848 heartbeat IPC: 2.82426 cumulative IPC: 2.8009 (Simulation time: 0 hr 7 min 55 sec) 
Heartbeat CPU 0 instructions: 40000000 cycles: 14261093 heartbeat IPC: 2.81671 cumulative IPC: 2.80483 (Simulation time: 0 hr 10 min 36 sec) 
Heartbeat CPU 0 instructions: 50000001 cycles: 17808864 heartbeat IPC: 2.81867 cumulative IPC: 2.80759 (Simulation time: 0 hr 13 min 14 sec) 

Warmup complete CPU 0 instructions: 50000001 cycles: 17808864 (Simulation time: 0 hr 13 min 14 sec) 

Heartbeat CPU 0 instructions: 60000000 cycles: 24249525 heartbeat IPC: 1.55264 cumulative IPC: 1.55264 (Simulation time: 0 hr 15 min 47 sec) 
Heartbeat CPU 0 instructions: 70000003 cycles: 30683029 heartbeat IPC: 1.55436 cumulative IPC: 1.5535 (Simulation time: 0 hr 18 min 14 sec) 
Heartbeat CPU 0 instructions: 80000003 cycles: 37119186 heartbeat IPC: 1.55372 cumulative IPC: 1.55357 (Simulation time: 0 hr 20 min 38 sec) 
Heartbeat CPU 0 instructions: 90000002 cycles: 43553951 heartbeat IPC: 1.55406 cumulative IPC: 1.55369 (Simulation time: 0 hr 22 min 52 sec) 
Heartbeat CPU 0 instructions: 100000003 cycles: 49987521 heartbeat IPC: 1.55435 cumulative IPC: 1.55383 (Simulation time: 0 hr 24 min 15 sec) 
Finished CPU 0 instructions: 50000002 cycles: 32178657 cumulative IPC: 1.55383 (Simulation time: 0 hr 24 min 15 sec) 

ChampSim completed all CPUs

Region of Interest Statistics

CPU 0 cumulative IPC: 1.55383 instructions: 50000002 cycles: 32178657
L1D TOTAL     ACCESS:   21523376  HIT:   21522567  MISS:        809
L1D LOAD      ACCESS:    6601343  HIT:    6600967  MISS:        376
L1D RFO       ACCESS:    8433017  HIT:    8432905  MISS:        112
L1D PREFETCH  ACCESS:    6489016  HIT:    6488695  MISS:        321
L1D WRITEBACK ACCESS:          0  HIT:          0  MISS:          0
L1D PREFETCH  REQUESTED:    6601392  ISSUED:    6496389  USEFUL:         91  USELESS:        231
L1D AVERAGE MISS LATENCY: 40.8541 cycles
L1I TOTAL     ACCESS:   18338476  HIT:   15463759  MISS:    2874717
L1I LOAD      ACCESS:    9899730  HIT:    9890424  MISS:       9306
L1I RFO       ACCESS:          0  HIT:          0  MISS:          0
L1I PREFETCH  ACCESS:    8438746  HIT:    5573335  MISS:    2865411
L1I WRITEBACK ACCESS:          0  HIT:          0  MISS:          0
L1I PREFETCH  REQUESTED:    8597076  ISSUED:    8551460  USEFUL:    1982290  USELESS:     883101
L1I AVERAGE MISS LATENCY: 14.4216 cycles
L2C TOTAL     ACCESS:    4286752  HIT:    4286450  MISS:        302
L2C LOAD      ACCESS:       9629  HIT:       9561  MISS:         68
L2C RFO       ACCESS:        112  HIT:        109  MISS:          3
L2C PREFETCH  ACCESS:    4276675  HIT:    4276446  MISS:        229
L2C WRITEBACK ACCESS:        336  HIT:        334  MISS:          2
L2C PREFETCH  REQUESTED:    3014231  ISSUED:    3012846  USEFUL:        121  USELESS:        108
L2C AVERAGE MISS LATENCY: 143.05 cycles
LLC TOTAL     ACCESS:     460219  HIT:     459482  MISS:        737
LLC LOAD      ACCESS:         68  HIT:         53  MISS:         15
LLC RFO       ACCESS:          3  HIT:          1  MISS:          2
LLC PREFETCH  ACCESS:     460041  HIT:     459324  MISS:        717
LLC WRITEBACK ACCESS:        107  HIT:        104  MISS:          3
LLC PREFETCH  REQUESTED:          0  ISSUED:          0  USEFUL:         12  USELESS:        159
LLC AVERAGE MISS LATENCY: 342.701 cycles
Major fault: 0 Minor fault: 1873
CPU 0 L1D next line prefetcher final stats

DRAM Statistics
 CHANNEL 0
 RQ ROW_BUFFER_HIT:        139  ROW_BUFFER_MISS:        595
 DBUS_CONGESTED:        497
 WQ ROW_BUFFER_HIT:         96  ROW_BUFFER_MISS:        436  FULL:          0

 AVG_CONGESTED_CYCLE: 6

CPU 0 Branch Prediction Accuracy: 99.8789% MPKI: 0.20388 Average ROB Occupancy at Mispredict: 278.403

Branch types
NOT_BRANCH: 41580695 83.1614%
BRANCH_DIRECT_JUMP: 461630 0.92326%
BRANCH_INDIRECT: 0 0%
BRANCH_CONDITIONAL: 5376437 10.7529%
BRANCH_DIRECT_CALL: 1175775 2.35155%
BRANCH_INDIRECT_CALL: 114840 0.22968%
BRANCH_RETURN: 1290625 2.58125%
BRANCH_OTHER: 0 0%

