Initialize SIGNATURE TABLE
ST_SET: 1
ST_WAY: 256
ST_TAG_BIT: 16
ST_TAG_MASK: ffff

Initialize PATTERN TABLE
PT_SET: 512
PT_WAY: 4
SIG_DELTA_BIT: 7
C_SIG_BIT: 4
C_DELTA_BIT: 4

Initialize PREFETCH FILTER
FILTER_SET: 1024

*** ChampSim Multicore Out-of-Order Simulator ***

Warmup Instructions: 50000000
Simulation Instructions: 50000000
Number of CPUs: 1
LLC sets: 2048
LLC ways: 16
Off-chip DRAM Size: 4096 MB Channels: 1 Width: 64-bit Data Rate: 3200 MT/s

CPU 0 runs /home/ChampSim-master//dpc3_traces/server_013.champsimtrace.xz
CPU 0 EPI prefetcher
CPU 0 L1D next line prefetcher
Heartbeat CPU 0 instructions: 10000000 cycles: 3214767 heartbeat IPC: 3.11065 cumulative IPC: 3.11065 (Simulation time: 0 hr 3 min 23 sec) 
Heartbeat CPU 0 instructions: 20000001 cycles: 6417741 heartbeat IPC: 3.1221 cumulative IPC: 3.11636 (Simulation time: 0 hr 6 min 54 sec) 
Heartbeat CPU 0 instructions: 30000002 cycles: 9624520 heartbeat IPC: 3.11839 cumulative IPC: 3.11704 (Simulation time: 0 hr 10 min 17 sec) 
Heartbeat CPU 0 instructions: 40000002 cycles: 12827518 heartbeat IPC: 3.12208 cumulative IPC: 3.1183 (Simulation time: 0 hr 13 min 30 sec) 
Heartbeat CPU 0 instructions: 50000000 cycles: 16030004 heartbeat IPC: 3.12257 cumulative IPC: 3.11915 (Simulation time: 0 hr 16 min 35 sec) 

Warmup complete CPU 0 instructions: 50000004 cycles: 16030005 (Simulation time: 0 hr 16 min 35 sec) 

Heartbeat CPU 0 instructions: 60000000 cycles: 23737707 heartbeat IPC: 1.2974 cumulative IPC: 1.2974 (Simulation time: 0 hr 19 min 23 sec) 
Heartbeat CPU 0 instructions: 70000002 cycles: 31617024 heartbeat IPC: 1.26915 cumulative IPC: 1.28312 (Simulation time: 0 hr 22 min 6 sec) 
Heartbeat CPU 0 instructions: 80000003 cycles: 38976521 heartbeat IPC: 1.35879 cumulative IPC: 1.30739 (Simulation time: 0 hr 24 min 49 sec) 
Heartbeat CPU 0 instructions: 90000003 cycles: 46503117 heartbeat IPC: 1.32862 cumulative IPC: 1.31263 (Simulation time: 0 hr 27 min 23 sec) 
Heartbeat CPU 0 instructions: 100000003 cycles: 54050030 heartbeat IPC: 1.32505 cumulative IPC: 1.3151 (Simulation time: 0 hr 29 min 19 sec) 
Finished CPU 0 instructions: 50000003 cycles: 38020026 cumulative IPC: 1.3151 (Simulation time: 0 hr 29 min 19 sec) 

ChampSim completed all CPUs

Region of Interest Statistics

CPU 0 cumulative IPC: 1.3151 instructions: 50000003 cycles: 38020026
L1D TOTAL     ACCESS:   17357946  HIT:   16291480  MISS:    1066466
L1D LOAD      ACCESS:    6331640  HIT:    5833440  MISS:     498200
L1D RFO       ACCESS:    4929930  HIT:    4849858  MISS:      80072
L1D PREFETCH  ACCESS:    6096376  HIT:    5608182  MISS:     488194
L1D WRITEBACK ACCESS:          0  HIT:          0  MISS:          0
L1D PREFETCH  REQUESTED:    6365800  ISSUED:    6270170  USEFUL:     136570  USELESS:     351631
L1D AVERAGE MISS LATENCY: 42.0035 cycles
L1I TOTAL     ACCESS:   32155588  HIT:   30264978  MISS:    1890610
L1I LOAD      ACCESS:    8679214  HIT:    8562657  MISS:     116557
L1I RFO       ACCESS:          0  HIT:          0  MISS:          0
L1I PREFETCH  ACCESS:   23476374  HIT:   21702321  MISS:    1774053
L1I WRITEBACK ACCESS:          0  HIT:          0  MISS:          0
L1I PREFETCH  REQUESTED:   31393486  ISSUED:   31393486  USEFUL:    1320889  USELESS:     453150
L1I AVERAGE MISS LATENCY: 33.4855 cycles
L2C TOTAL     ACCESS:    3835234  HIT:    2464992  MISS:    1370242
L2C LOAD      ACCESS:     564204  HIT:     254024  MISS:     310180
L2C RFO       ACCESS:      78804  HIT:      30626  MISS:      48178
L2C PREFETCH  ACCESS:    2916443  HIT:    1906266  MISS:    1010177
L2C WRITEBACK ACCESS:     275783  HIT:     274076  MISS:       1707
L2C PREFETCH  REQUESTED:    4070468  ISSUED:    4062232  USEFUL:      37047  USELESS:     972435
L2C AVERAGE MISS LATENCY: 46.823 cycles
LLC TOTAL     ACCESS:    2714138  HIT:    2540477  MISS:     173661
LLC LOAD      ACCESS:     300847  HIT:     278171  MISS:      22676
LLC RFO       ACCESS:      48169  HIT:      38363  MISS:       9806
LLC PREFETCH  ACCESS:    2191163  HIT:    2050363  MISS:     140800
LLC WRITEBACK ACCESS:     173959  HIT:     173580  MISS:        379
LLC PREFETCH  REQUESTED:          0  ISSUED:          0  USEFUL:      12229  USELESS:     126217
LLC AVERAGE MISS LATENCY: 176.91 cycles
Major fault: 0 Minor fault: 6207
CPU 0 L1I EPI prefetcher final stats
CPU 0 L1D next line prefetcher final stats

DRAM Statistics
 CHANNEL 0
 RQ ROW_BUFFER_HIT:      29970  ROW_BUFFER_MISS:     143299
 DBUS_CONGESTED:      79649
 WQ ROW_BUFFER_HIT:      12455  ROW_BUFFER_MISS:      51766  FULL:          0

 AVG_CONGESTED_CYCLE: 5

CPU 0 Branch Prediction Accuracy: 99.4114% MPKI: 1.0933 Average ROB Occupancy at Mispredict: 124.271

Branch types
NOT_BRANCH: 40713258 81.4265%
BRANCH_DIRECT_JUMP: 463701 0.927402%
BRANCH_INDIRECT: 146544 0.293088%
BRANCH_CONDITIONAL: 6981953 13.9639%
BRANCH_DIRECT_CALL: 665005 1.33001%
BRANCH_INDIRECT_CALL: 165152 0.330304%
BRANCH_RETURN: 864314 1.72863%
BRANCH_OTHER: 0 0%

