Initialize SIGNATURE TABLE
ST_SET: 1
ST_WAY: 256
ST_TAG_BIT: 16
ST_TAG_MASK: ffff

Initialize PATTERN TABLE
PT_SET: 512
PT_WAY: 4
SIG_DELTA_BIT: 7
C_SIG_BIT: 4
C_DELTA_BIT: 4

Initialize PREFETCH FILTER
FILTER_SET: 1024

*** ChampSim Multicore Out-of-Order Simulator ***

Warmup Instructions: 50000000
Simulation Instructions: 50000000
Number of CPUs: 1
LLC sets: 2048
LLC ways: 16
Off-chip DRAM Size: 4096 MB Channels: 1 Width: 64-bit Data Rate: 3200 MT/s

CPU 0 runs /home/ChampSim-master//dpc3_traces/server_019.champsimtrace.xz
L1I D-JOLT instruction prefetcher has been constructed!
CPU 0 L1D next line prefetcher
Heartbeat CPU 0 instructions: 10000002 cycles: 3623411 heartbeat IPC: 2.75983 cumulative IPC: 2.75983 (Simulation time: 0 hr 3 min 2 sec) 
Heartbeat CPU 0 instructions: 20000003 cycles: 7248667 heartbeat IPC: 2.75843 cumulative IPC: 2.75913 (Simulation time: 0 hr 6 min 19 sec) 
Heartbeat CPU 0 instructions: 30000002 cycles: 10872971 heartbeat IPC: 2.75915 cumulative IPC: 2.75914 (Simulation time: 0 hr 9 min 28 sec) 
Heartbeat CPU 0 instructions: 40000002 cycles: 14509670 heartbeat IPC: 2.74975 cumulative IPC: 2.75678 (Simulation time: 0 hr 12 min 31 sec) 
Heartbeat CPU 0 instructions: 50000001 cycles: 18135070 heartbeat IPC: 2.75832 cumulative IPC: 2.75709 (Simulation time: 0 hr 15 min 28 sec) 

Warmup complete CPU 0 instructions: 50000001 cycles: 18135070 (Simulation time: 0 hr 15 min 28 sec) 

Heartbeat CPU 0 instructions: 60000000 cycles: 37956882 heartbeat IPC: 0.504495 cumulative IPC: 0.504495 (Simulation time: 0 hr 19 min 0 sec) 
Heartbeat CPU 0 instructions: 70000002 cycles: 61513877 heartbeat IPC: 0.424502 cumulative IPC: 0.461055 (Simulation time: 0 hr 22 min 14 sec) 
Heartbeat CPU 0 instructions: 80000001 cycles: 82002187 heartbeat IPC: 0.488083 cumulative IPC: 0.469725 (Simulation time: 0 hr 25 min 9 sec) 
Heartbeat CPU 0 instructions: 90000002 cycles: 99537679 heartbeat IPC: 0.570272 cumulative IPC: 0.491385 (Simulation time: 0 hr 26 min 31 sec) 
Heartbeat CPU 0 instructions: 100000002 cycles: 117022538 heartbeat IPC: 0.571923 cumulative IPC: 0.505625 (Simulation time: 0 hr 27 min 5 sec) 
Finished CPU 0 instructions: 50000001 cycles: 98887468 cumulative IPC: 0.505625 (Simulation time: 0 hr 27 min 5 sec) 

ChampSim completed all CPUs

Region of Interest Statistics

CPU 0 cumulative IPC: 0.505625 instructions: 50000001 cycles: 98887468
L1D TOTAL     ACCESS:   18301634  HIT:   16078097  MISS:    2223537
L1D LOAD      ACCESS:    6975506  HIT:    6224988  MISS:     750518
L1D RFO       ACCESS:    5511625  HIT:    4609690  MISS:     901935
L1D PREFETCH  ACCESS:    5814503  HIT:    5243419  MISS:     571084
L1D WRITEBACK ACCESS:          0  HIT:          0  MISS:          0
L1D PREFETCH  REQUESTED:    7012781  ISSUED:    6826607  USEFUL:     201887  USELESS:     369106
L1D AVERAGE MISS LATENCY: 188.582 cycles
L1I TOTAL     ACCESS:   18336315  HIT:   15064888  MISS:    3271427
L1I LOAD      ACCESS:    9881912  HIT:    9837595  MISS:      44317
L1I RFO       ACCESS:          0  HIT:          0  MISS:          0
L1I PREFETCH  ACCESS:    8454403  HIT:    5227293  MISS:    3227110
L1I WRITEBACK ACCESS:          0  HIT:          0  MISS:          0
L1I PREFETCH  REQUESTED:    9136759  ISSUED:    9069757  USEFUL:    2434795  USELESS:     792244
L1I AVERAGE MISS LATENCY: 18.8655 cycles
L2C TOTAL     ACCESS:    8129225  HIT:    6230404  MISS:    1898821
L2C LOAD      ACCESS:     589002  HIT:     253636  MISS:     335366
L2C RFO       ACCESS:     901453  HIT:      17884  MISS:     883569
L2C PREFETCH  ACCESS:    5464160  HIT:    4786851  MISS:     677309
L2C WRITEBACK ACCESS:    1174610  HIT:    1172033  MISS:       2577
L2C PREFETCH  REQUESTED:    5042247  ISSUED:    5035798  USEFUL:      21395  USELESS:     654412
L2C AVERAGE MISS LATENCY: 225.041 cycles
LLC TOTAL     ACCESS:    4416118  HIT:    2774238  MISS:    1641880
LLC LOAD      ACCESS:     335287  HIT:     166907  MISS:     168380
LLC RFO       ACCESS:     883567  HIT:     114712  MISS:     768855
LLC PREFETCH  ACCESS:    2084811  HIT:    1382406  MISS:     702405
LLC WRITEBACK ACCESS:    1112453  HIT:    1110213  MISS:       2240
LLC PREFETCH  REQUESTED:          0  ISSUED:          0  USEFUL:      54517  USELESS:     647047
LLC AVERAGE MISS LATENCY: 280.183 cycles
Major fault: 0 Minor fault: 25694
CPU 0 L1D next line prefetcher final stats

DRAM Statistics
 CHANNEL 0
 RQ ROW_BUFFER_HIT:     400328  ROW_BUFFER_MISS:    1239076
 DBUS_CONGESTED:    1614754
 WQ ROW_BUFFER_HIT:     256077  ROW_BUFFER_MISS:     684271  FULL:          0

 AVG_CONGESTED_CYCLE: 6

CPU 0 Branch Prediction Accuracy: 99.2186% MPKI: 1.32192 Average ROB Occupancy at Mispredict: 179.503

Branch types
NOT_BRANCH: 41540785 83.0816%
BRANCH_DIRECT_JUMP: 462384 0.924768%
BRANCH_INDIRECT: 45460 0.09092%
BRANCH_CONDITIONAL: 6209281 12.4186%
BRANCH_DIRECT_CALL: 666241 1.33248%
BRANCH_INDIRECT_CALL: 204728 0.409456%
BRANCH_RETURN: 870978 1.74196%
BRANCH_OTHER: 0 0%

