Initialize SIGNATURE TABLE
ST_SET: 1
ST_WAY: 256
ST_TAG_BIT: 16
ST_TAG_MASK: ffff

Initialize PATTERN TABLE
PT_SET: 512
PT_WAY: 4
SIG_DELTA_BIT: 7
C_SIG_BIT: 4
C_DELTA_BIT: 4

Initialize PREFETCH FILTER
FILTER_SET: 1024

*** ChampSim Multicore Out-of-Order Simulator ***

Warmup Instructions: 50000000
Simulation Instructions: 50000000
Number of CPUs: 1
LLC sets: 2048
LLC ways: 16
Off-chip DRAM Size: 4096 MB Channels: 1 Width: 64-bit Data Rate: 3200 MT/s

CPU 0 runs /home/ChampSim-master//dpc3_traces/server_021.champsimtrace.xz
CPU 0 EPI prefetcher
CPU 0 L1D next line prefetcher
Heartbeat CPU 0 instructions: 10000000 cycles: 3622750 heartbeat IPC: 2.76033 cumulative IPC: 2.76033 (Simulation time: 0 hr 3 min 17 sec) 
Heartbeat CPU 0 instructions: 20000000 cycles: 7240133 heartbeat IPC: 2.76443 cumulative IPC: 2.76238 (Simulation time: 0 hr 6 min 21 sec) 
Heartbeat CPU 0 instructions: 30000003 cycles: 10888645 heartbeat IPC: 2.74084 cumulative IPC: 2.75516 (Simulation time: 0 hr 9 min 26 sec) 
Heartbeat CPU 0 instructions: 40000001 cycles: 14502190 heartbeat IPC: 2.76736 cumulative IPC: 2.7582 (Simulation time: 0 hr 12 min 31 sec) 
Heartbeat CPU 0 instructions: 50000002 cycles: 18138584 heartbeat IPC: 2.74998 cumulative IPC: 2.75655 (Simulation time: 0 hr 15 min 34 sec) 

Warmup complete CPU 0 instructions: 50000002 cycles: 18138584 (Simulation time: 0 hr 15 min 35 sec) 

Heartbeat CPU 0 instructions: 60000001 cycles: 35057182 heartbeat IPC: 0.591065 cumulative IPC: 0.591065 (Simulation time: 0 hr 19 min 10 sec) 
Heartbeat CPU 0 instructions: 70000002 cycles: 52202419 heartbeat IPC: 0.583252 cumulative IPC: 0.587133 (Simulation time: 0 hr 22 min 43 sec) 
Heartbeat CPU 0 instructions: 80000001 cycles: 68938647 heartbeat IPC: 0.597506 cumulative IPC: 0.59055 (Simulation time: 0 hr 26 min 0 sec) 
Heartbeat CPU 0 instructions: 90000001 cycles: 85986402 heartbeat IPC: 0.586587 cumulative IPC: 0.589555 (Simulation time: 0 hr 28 min 19 sec) 
Heartbeat CPU 0 instructions: 100000002 cycles: 102821034 heartbeat IPC: 0.594014 cumulative IPC: 0.590441 (Simulation time: 0 hr 29 min 9 sec) 
Finished CPU 0 instructions: 50000000 cycles: 84682450 cumulative IPC: 0.590441 (Simulation time: 0 hr 29 min 9 sec) 

ChampSim completed all CPUs

Region of Interest Statistics

CPU 0 cumulative IPC: 0.590441 instructions: 50000000 cycles: 84682450
L1D TOTAL     ACCESS:   18758051  HIT:   16554488  MISS:    2203563
L1D LOAD      ACCESS:    7085412  HIT:    6380079  MISS:     705333
L1D RFO       ACCESS:    5882774  HIT:    4907048  MISS:     975726
L1D PREFETCH  ACCESS:    5789865  HIT:    5267361  MISS:     522504
L1D WRITEBACK ACCESS:          0  HIT:          0  MISS:          0
L1D PREFETCH  REQUESTED:    7128759  ISSUED:    6921865  USEFUL:     201173  USELESS:     321325
L1D AVERAGE MISS LATENCY: 178.081 cycles
L1I TOTAL     ACCESS:   30534051  HIT:   28021972  MISS:    2512079
L1I LOAD      ACCESS:   10061053  HIT:    9905448  MISS:     155605
L1I RFO       ACCESS:          0  HIT:          0  MISS:          0
L1I PREFETCH  ACCESS:   20472998  HIT:   18116524  MISS:    2356474
L1I WRITEBACK ACCESS:          0  HIT:          0  MISS:          0
L1I PREFETCH  REQUESTED:   23128036  ISSUED:   23128036  USEFUL:    2228371  USELESS:     128083
L1I AVERAGE MISS LATENCY: 18.3511 cycles
L2C TOTAL     ACCESS:    7077681  HIT:    5218828  MISS:    1858853
L2C LOAD      ACCESS:     610688  HIT:     356995  MISS:     253693
L2C RFO       ACCESS:     975037  HIT:      21641  MISS:     953396
L2C PREFETCH  ACCESS:    4312042  HIT:    3662824  MISS:     649218
L2C WRITEBACK ACCESS:    1179914  HIT:    1177368  MISS:       2546
L2C PREFETCH  REQUESTED:    3887521  ISSUED:    3881303  USEFUL:      21843  USELESS:     627397
L2C AVERAGE MISS LATENCY: 217.034 cycles
LLC TOTAL     ACCESS:    4062399  HIT:    2662471  MISS:    1399928
LLC LOAD      ACCESS:     253607  HIT:     176969  MISS:      76638
LLC RFO       ACCESS:     953363  HIT:     142501  MISS:     810862
LLC PREFETCH  ACCESS:    1743465  HIT:    1233063  MISS:     510402
LLC WRITEBACK ACCESS:    1111964  HIT:    1109938  MISS:       2026
LLC PREFETCH  REQUESTED:          0  ISSUED:          0  USEFUL:      28833  USELESS:     479788
LLC AVERAGE MISS LATENCY: 288.316 cycles
Major fault: 0 Minor fault: 22289
CPU 0 L1I EPI prefetcher final stats
CPU 0 L1D next line prefetcher final stats

DRAM Statistics
 CHANNEL 0
 RQ ROW_BUFFER_HIT:     403689  ROW_BUFFER_MISS:     993859
 DBUS_CONGESTED:    1431631
 WQ ROW_BUFFER_HIT:     270932  ROW_BUFFER_MISS:     627249  FULL:          0

 AVG_CONGESTED_CYCLE: 6

CPU 0 Branch Prediction Accuracy: 99.8303% MPKI: 0.27836 Average ROB Occupancy at Mispredict: 226.091

Branch types
NOT_BRANCH: 41798548 83.5971%
BRANCH_DIRECT_JUMP: 445215 0.89043%
BRANCH_INDIRECT: 50481 0.100962%
BRANCH_CONDITIONAL: 5868246 11.7365%
BRANCH_DIRECT_CALL: 758228 1.51646%
BRANCH_INDIRECT_CALL: 160494 0.320988%
BRANCH_RETURN: 918718 1.83744%
BRANCH_OTHER: 0 0%

