Initialize SIGNATURE TABLE
ST_SET: 1
ST_WAY: 256
ST_TAG_BIT: 16
ST_TAG_MASK: ffff

Initialize PATTERN TABLE
PT_SET: 512
PT_WAY: 4
SIG_DELTA_BIT: 7
C_SIG_BIT: 4
C_DELTA_BIT: 4

Initialize PREFETCH FILTER
FILTER_SET: 1024

*** ChampSim Multicore Out-of-Order Simulator ***

Warmup Instructions: 50000000
Simulation Instructions: 50000000
Number of CPUs: 1
LLC sets: 2048
LLC ways: 16
Off-chip DRAM Size: 4096 MB Channels: 1 Width: 64-bit Data Rate: 3200 MT/s

CPU 0 runs /home/ChampSim-master//dpc3_traces/server_013.champsimtrace.xz
L1I D-JOLT instruction prefetcher has been constructed!
CPU 0 L1D next line prefetcher
Heartbeat CPU 0 instructions: 10000000 cycles: 3210618 heartbeat IPC: 3.11467 cumulative IPC: 3.11467 (Simulation time: 0 hr 2 min 43 sec) 
Heartbeat CPU 0 instructions: 20000001 cycles: 6410605 heartbeat IPC: 3.12501 cumulative IPC: 3.11983 (Simulation time: 0 hr 5 min 11 sec) 
Heartbeat CPU 0 instructions: 30000002 cycles: 9614326 heartbeat IPC: 3.12137 cumulative IPC: 3.12034 (Simulation time: 0 hr 7 min 46 sec) 
Heartbeat CPU 0 instructions: 40000002 cycles: 12813594 heartbeat IPC: 3.12572 cumulative IPC: 3.12168 (Simulation time: 0 hr 10 min 23 sec) 
Heartbeat CPU 0 instructions: 50000000 cycles: 16012299 heartbeat IPC: 3.12626 cumulative IPC: 3.1226 (Simulation time: 0 hr 13 min 24 sec) 

Warmup complete CPU 0 instructions: 50000004 cycles: 16012300 (Simulation time: 0 hr 13 min 24 sec) 

Heartbeat CPU 0 instructions: 60000000 cycles: 23532964 heartbeat IPC: 1.32967 cumulative IPC: 1.32967 (Simulation time: 0 hr 15 min 52 sec) 
Heartbeat CPU 0 instructions: 70000003 cycles: 31212822 heartbeat IPC: 1.30211 cumulative IPC: 1.31574 (Simulation time: 0 hr 18 min 20 sec) 
Heartbeat CPU 0 instructions: 80000003 cycles: 38371615 heartbeat IPC: 1.39688 cumulative IPC: 1.34172 (Simulation time: 0 hr 20 min 44 sec) 
Heartbeat CPU 0 instructions: 90000003 cycles: 45718072 heartbeat IPC: 1.3612 cumulative IPC: 1.34654 (Simulation time: 0 hr 22 min 58 sec) 
Heartbeat CPU 0 instructions: 100000003 cycles: 53069897 heartbeat IPC: 1.36021 cumulative IPC: 1.34925 (Simulation time: 0 hr 24 min 52 sec) 
Finished CPU 0 instructions: 50000003 cycles: 37057598 cumulative IPC: 1.34925 (Simulation time: 0 hr 24 min 52 sec) 

ChampSim completed all CPUs

Region of Interest Statistics

CPU 0 cumulative IPC: 1.34925 instructions: 50000003 cycles: 37057598
L1D TOTAL     ACCESS:   17303810  HIT:   16237389  MISS:    1066421
L1D LOAD      ACCESS:    6307203  HIT:    5806136  MISS:     501067
L1D RFO       ACCESS:    4929236  HIT:    4849024  MISS:      80212
L1D PREFETCH  ACCESS:    6067371  HIT:    5582229  MISS:     485142
L1D WRITEBACK ACCESS:          0  HIT:          0  MISS:          0
L1D PREFETCH  REQUESTED:    6341993  ISSUED:    6247874  USEFUL:     133594  USELESS:     351556
L1D AVERAGE MISS LATENCY: 42.1 cycles
L1I TOTAL     ACCESS:   16072842  HIT:   14069449  MISS:    2003393
L1I LOAD      ACCESS:    8705351  HIT:    8614355  MISS:      90996
L1I RFO       ACCESS:          0  HIT:          0  MISS:          0
L1I PREFETCH  ACCESS:    7367491  HIT:    5455094  MISS:    1912397
L1I WRITEBACK ACCESS:          0  HIT:          0  MISS:          0
L1I PREFETCH  REQUESTED:    8138364  ISSUED:    7677960  USEFUL:    1421762  USELESS:     490569
L1I AVERAGE MISS LATENCY: 31.8621 cycles
L2C TOTAL     ACCESS:    3997441  HIT:    2602863  MISS:    1394578
L2C LOAD      ACCESS:     528018  HIT:     241820  MISS:     286198
L2C RFO       ACCESS:      78861  HIT:      29728  MISS:      49133
L2C PREFETCH  ACCESS:    3114784  HIT:    2056857  MISS:    1057927
L2C WRITEBACK ACCESS:     275778  HIT:     274458  MISS:       1320
L2C PREFETCH  REQUESTED:    3018213  ISSUED:    3015390  USEFUL:      27526  USELESS:    1030620
L2C AVERAGE MISS LATENCY: 46.0778 cycles
LLC TOTAL     ACCESS:    2501799  HIT:    2343230  MISS:     158569
LLC LOAD      ACCESS:     286075  HIT:     263659  MISS:      22416
LLC RFO       ACCESS:      49126  HIT:      39413  MISS:       9713
LLC PREFETCH  ACCESS:    1993665  HIT:    1867470  MISS:     126195
LLC WRITEBACK ACCESS:     172933  HIT:     172688  MISS:        245
LLC PREFETCH  REQUESTED:          0  ISSUED:          0  USEFUL:      12183  USELESS:     113526
LLC AVERAGE MISS LATENCY: 174.254 cycles
Major fault: 0 Minor fault: 6210
CPU 0 L1D next line prefetcher final stats

DRAM Statistics
 CHANNEL 0
 RQ ROW_BUFFER_HIT:      24685  ROW_BUFFER_MISS:     133620
 DBUS_CONGESTED:      67748
 WQ ROW_BUFFER_HIT:      11355  ROW_BUFFER_MISS:      50697  FULL:          0

 AVG_CONGESTED_CYCLE: 5

CPU 0 Branch Prediction Accuracy: 99.4114% MPKI: 1.0933 Average ROB Occupancy at Mispredict: 124.193

Branch types
NOT_BRANCH: 40713268 81.4265%
BRANCH_DIRECT_JUMP: 463701 0.927402%
BRANCH_INDIRECT: 146544 0.293088%
BRANCH_CONDITIONAL: 6981954 13.9639%
BRANCH_DIRECT_CALL: 665005 1.33001%
BRANCH_INDIRECT_CALL: 165152 0.330304%
BRANCH_RETURN: 864314 1.72863%
BRANCH_OTHER: 0 0%

