Initialize SIGNATURE TABLE
ST_SET: 1
ST_WAY: 256
ST_TAG_BIT: 16
ST_TAG_MASK: ffff

Initialize PATTERN TABLE
PT_SET: 512
PT_WAY: 4
SIG_DELTA_BIT: 7
C_SIG_BIT: 4
C_DELTA_BIT: 4

Initialize PREFETCH FILTER
FILTER_SET: 1024

*** ChampSim Multicore Out-of-Order Simulator ***

Warmup Instructions: 50000000
Simulation Instructions: 50000000
Number of CPUs: 1
LLC sets: 2048
LLC ways: 16
Off-chip DRAM Size: 4096 MB Channels: 1 Width: 64-bit Data Rate: 3200 MT/s

CPU 0 runs /home/ChampSim-master//dpc3_traces/server_002.champsimtrace.xz
L1I D-JOLT instruction prefetcher has been constructed!
CPU 0 L1D next line prefetcher
Heartbeat CPU 0 instructions: 10000000 cycles: 3581188 heartbeat IPC: 2.79237 cumulative IPC: 2.79237 (Simulation time: 0 hr 3 min 3 sec) 
Heartbeat CPU 0 instructions: 20000002 cycles: 7170094 heartbeat IPC: 2.78637 cumulative IPC: 2.78936 (Simulation time: 0 hr 5 min 58 sec) 
Heartbeat CPU 0 instructions: 30000000 cycles: 10710837 heartbeat IPC: 2.82427 cumulative IPC: 2.8009 (Simulation time: 0 hr 8 min 41 sec) 
Heartbeat CPU 0 instructions: 40000000 cycles: 14261082 heartbeat IPC: 2.81671 cumulative IPC: 2.80484 (Simulation time: 0 hr 11 min 47 sec) 
Heartbeat CPU 0 instructions: 50000001 cycles: 17808853 heartbeat IPC: 2.81867 cumulative IPC: 2.80759 (Simulation time: 0 hr 14 min 44 sec) 

Warmup complete CPU 0 instructions: 50000001 cycles: 17808853 (Simulation time: 0 hr 14 min 44 sec) 

Heartbeat CPU 0 instructions: 60000000 cycles: 24247525 heartbeat IPC: 1.55312 cumulative IPC: 1.55312 (Simulation time: 0 hr 17 min 46 sec) 
Heartbeat CPU 0 instructions: 70000003 cycles: 30682165 heartbeat IPC: 1.55409 cumulative IPC: 1.5536 (Simulation time: 0 hr 20 min 44 sec) 
Heartbeat CPU 0 instructions: 80000003 cycles: 37119764 heartbeat IPC: 1.55337 cumulative IPC: 1.55353 (Simulation time: 0 hr 23 min 37 sec) 
Heartbeat CPU 0 instructions: 90000002 cycles: 43555724 heartbeat IPC: 1.55377 cumulative IPC: 1.55359 (Simulation time: 0 hr 26 min 14 sec) 
Heartbeat CPU 0 instructions: 100000003 cycles: 49989939 heartbeat IPC: 1.55419 cumulative IPC: 1.55371 (Simulation time: 0 hr 27 min 38 sec) 
Finished CPU 0 instructions: 50000002 cycles: 32181086 cumulative IPC: 1.55371 (Simulation time: 0 hr 27 min 38 sec) 

ChampSim completed all CPUs

Region of Interest Statistics

CPU 0 cumulative IPC: 1.55371 instructions: 50000002 cycles: 32181086
L1D TOTAL     ACCESS:   21522685  HIT:   21521876  MISS:        809
L1D LOAD      ACCESS:    6600964  HIT:    6600588  MISS:        376
L1D RFO       ACCESS:    8433018  HIT:    8432906  MISS:        112
L1D PREFETCH  ACCESS:    6488703  HIT:    6488382  MISS:        321
L1D WRITEBACK ACCESS:          0  HIT:          0  MISS:          0
L1D PREFETCH  REQUESTED:    6601014  ISSUED:    6496091  USEFUL:         91  USELESS:        231
L1D AVERAGE MISS LATENCY: 35.8888 cycles
L1I TOTAL     ACCESS:   19748923  HIT:   15664179  MISS:    4084744
L1I LOAD      ACCESS:    9945548  HIT:    9931710  MISS:      13838
L1I RFO       ACCESS:          0  HIT:          0  MISS:          0
L1I PREFETCH  ACCESS:    9803375  HIT:    5732469  MISS:    4070906
L1I WRITEBACK ACCESS:          0  HIT:          0  MISS:          0
L1I PREFETCH  REQUESTED:   10181572  ISSUED:    9988356  USEFUL:    2460255  USELESS:    1610638
L1I AVERAGE MISS LATENCY: 14.4564 cycles
L2C TOTAL     ACCESS:    5572340  HIT:    5572014  MISS:        326
L2C LOAD      ACCESS:      13643  HIT:      13589  MISS:         54
L2C RFO       ACCESS:        112  HIT:        106  MISS:          6
L2C PREFETCH  ACCESS:    5558249  HIT:    5557983  MISS:        266
L2C WRITEBACK ACCESS:        336  HIT:        336  MISS:          0
L2C PREFETCH  REQUESTED:    3381273  ISSUED:    3379543  USEFUL:        121  USELESS:        140
L2C AVERAGE MISS LATENCY: 145.626 cycles
LLC TOTAL     ACCESS:     604962  HIT:     604164  MISS:        798
LLC LOAD      ACCESS:         54  HIT:         41  MISS:         13
LLC RFO       ACCESS:          6  HIT:          4  MISS:          2
LLC PREFETCH  ACCESS:     604801  HIT:     604018  MISS:        783
LLC WRITEBACK ACCESS:        101  HIT:        101  MISS:          0
LLC PREFETCH  REQUESTED:          0  ISSUED:          0  USEFUL:         10  USELESS:        181
LLC AVERAGE MISS LATENCY: 366.982 cycles
Major fault: 0 Minor fault: 1873
CPU 0 L1D next line prefetcher final stats

DRAM Statistics
 CHANNEL 0
 RQ ROW_BUFFER_HIT:        119  ROW_BUFFER_MISS:        679
 DBUS_CONGESTED:        457
 WQ ROW_BUFFER_HIT:         69  ROW_BUFFER_MISS:        492  FULL:          0

 AVG_CONGESTED_CYCLE: 6

CPU 0 Branch Prediction Accuracy: 99.8789% MPKI: 0.20388 Average ROB Occupancy at Mispredict: 266.209

Branch types
NOT_BRANCH: 41580695 83.1614%
BRANCH_DIRECT_JUMP: 461630 0.92326%
BRANCH_INDIRECT: 0 0%
BRANCH_CONDITIONAL: 5376437 10.7529%
BRANCH_DIRECT_CALL: 1175775 2.35155%
BRANCH_INDIRECT_CALL: 114840 0.22968%
BRANCH_RETURN: 1290625 2.58125%
BRANCH_OTHER: 0 0%

