Initialize SIGNATURE TABLE
ST_SET: 1
ST_WAY: 256
ST_TAG_BIT: 16
ST_TAG_MASK: ffff

Initialize PATTERN TABLE
PT_SET: 512
PT_WAY: 4
SIG_DELTA_BIT: 7
C_SIG_BIT: 4
C_DELTA_BIT: 4

Initialize PREFETCH FILTER
FILTER_SET: 1024

*** ChampSim Multicore Out-of-Order Simulator ***

Warmup Instructions: 50000000
Simulation Instructions: 50000000
Number of CPUs: 1
LLC sets: 2048
LLC ways: 16
Off-chip DRAM Size: 4096 MB Channels: 1 Width: 64-bit Data Rate: 3200 MT/s

CPU 0 runs /home/ChampSim-master//dpc3_traces/server_012.champsimtrace.xz
L1I D-JOLT instruction prefetcher has been constructed!
CPU 0 L1D next line prefetcher
Heartbeat CPU 0 instructions: 10000002 cycles: 3192557 heartbeat IPC: 3.13229 cumulative IPC: 3.13229 (Simulation time: 0 hr 2 min 50 sec) 
Heartbeat CPU 0 instructions: 20000002 cycles: 6388181 heartbeat IPC: 3.12928 cumulative IPC: 3.13078 (Simulation time: 0 hr 5 min 16 sec) 
Heartbeat CPU 0 instructions: 30000001 cycles: 9584958 heartbeat IPC: 3.12815 cumulative IPC: 3.1299 (Simulation time: 0 hr 7 min 56 sec) 
Heartbeat CPU 0 instructions: 40000000 cycles: 12787640 heartbeat IPC: 3.12238 cumulative IPC: 3.12802 (Simulation time: 0 hr 10 min 23 sec) 
Heartbeat CPU 0 instructions: 50000003 cycles: 15983213 heartbeat IPC: 3.12933 cumulative IPC: 3.12828 (Simulation time: 0 hr 12 min 47 sec) 

Warmup complete CPU 0 instructions: 50000003 cycles: 15983213 (Simulation time: 0 hr 12 min 47 sec) 

Heartbeat CPU 0 instructions: 60000002 cycles: 23255069 heartbeat IPC: 1.37516 cumulative IPC: 1.37516 (Simulation time: 0 hr 14 min 58 sec) 
Heartbeat CPU 0 instructions: 70000000 cycles: 30600771 heartbeat IPC: 1.36134 cumulative IPC: 1.36822 (Simulation time: 0 hr 17 min 3 sec) 
Heartbeat CPU 0 instructions: 80000003 cycles: 37872722 heartbeat IPC: 1.37515 cumulative IPC: 1.37052 (Simulation time: 0 hr 19 min 7 sec) 
Heartbeat CPU 0 instructions: 90000001 cycles: 45473956 heartbeat IPC: 1.31558 cumulative IPC: 1.35636 (Simulation time: 0 hr 21 min 6 sec) 
Heartbeat CPU 0 instructions: 100000002 cycles: 52895652 heartbeat IPC: 1.3474 cumulative IPC: 1.35456 (Simulation time: 0 hr 23 min 0 sec) 
Finished CPU 0 instructions: 50000001 cycles: 36912440 cumulative IPC: 1.35456 (Simulation time: 0 hr 23 min 0 sec) 

ChampSim completed all CPUs

Region of Interest Statistics

CPU 0 cumulative IPC: 1.35456 instructions: 50000001 cycles: 36912440
L1D TOTAL     ACCESS:   17411016  HIT:   16368149  MISS:    1042867
L1D LOAD      ACCESS:    6344210  HIT:    5857712  MISS:     486498
L1D RFO       ACCESS:    4964144  HIT:    4882355  MISS:      81789
L1D PREFETCH  ACCESS:    6102662  HIT:    5628082  MISS:     474580
L1D WRITEBACK ACCESS:          0  HIT:          0  MISS:          0
L1D PREFETCH  REQUESTED:    6378100  ISSUED:    6277995  USEFUL:     133980  USELESS:     340621
L1D AVERAGE MISS LATENCY: 39.941 cycles
L1I TOTAL     ACCESS:   14667146  HIT:   12793743  MISS:    1873403
L1I LOAD      ACCESS:    8703705  HIT:    8523716  MISS:     179989
L1I RFO       ACCESS:          0  HIT:          0  MISS:          0
L1I PREFETCH  ACCESS:    5963441  HIT:    4270027  MISS:    1693414
L1I WRITEBACK ACCESS:          0  HIT:          0  MISS:          0
L1I PREFETCH  REQUESTED:    6300539  ISSUED:    6162768  USEFUL:    1276860  USELESS:     416596
L1I AVERAGE MISS LATENCY: 29.797 cycles
L2C TOTAL     ACCESS:    3842878  HIT:    2561466  MISS:    1281412
L2C LOAD      ACCESS:     582641  HIT:     270273  MISS:     312368
L2C RFO       ACCESS:      80696  HIT:      31100  MISS:      49596
L2C PREFETCH  ACCESS:    2904064  HIT:    1986249  MISS:     917815
L2C WRITEBACK ACCESS:     275477  HIT:     273844  MISS:       1633
L2C PREFETCH  REQUESTED:    2792470  ISSUED:    2789901  USEFUL:      43064  USELESS:     874623
L2C AVERAGE MISS LATENCY: 44.0472 cycles
LLC TOTAL     ACCESS:    2349218  HIT:    2209926  MISS:     139292
LLC LOAD      ACCESS:     312247  HIT:     291690  MISS:      20557
LLC RFO       ACCESS:      49595  HIT:      40237  MISS:       9358
LLC PREFETCH  ACCESS:    1818965  HIT:    1709913  MISS:     109052
LLC WRITEBACK ACCESS:     168411  HIT:     168086  MISS:        325
LLC PREFETCH  REQUESTED:          0  ISSUED:          0  USEFUL:      13410  USELESS:      95829
LLC AVERAGE MISS LATENCY: 169.648 cycles
Major fault: 0 Minor fault: 5612
CPU 0 L1D next line prefetcher final stats

DRAM Statistics
 CHANNEL 0
 RQ ROW_BUFFER_HIT:      20386  ROW_BUFFER_MISS:     118574
 DBUS_CONGESTED:      58155
 WQ ROW_BUFFER_HIT:      10657  ROW_BUFFER_MISS:      47576  FULL:          0

 AVG_CONGESTED_CYCLE: 5

CPU 0 Branch Prediction Accuracy: 99.4607% MPKI: 1.00288 Average ROB Occupancy at Mispredict: 116.848

Branch types
NOT_BRANCH: 40701161 81.4023%
BRANCH_DIRECT_JUMP: 469810 0.93962%
BRANCH_INDIRECT: 153732 0.307464%
BRANCH_CONDITIONAL: 6944091 13.8882%
BRANCH_DIRECT_CALL: 679880 1.35976%
BRANCH_INDIRECT_CALL: 168745 0.33749%
BRANCH_RETURN: 882493 1.76499%
BRANCH_OTHER: 0 0%

