Initialize SIGNATURE TABLE
ST_SET: 1
ST_WAY: 256
ST_TAG_BIT: 16
ST_TAG_MASK: ffff

Initialize PATTERN TABLE
PT_SET: 512
PT_WAY: 4
SIG_DELTA_BIT: 7
C_SIG_BIT: 4
C_DELTA_BIT: 4

Initialize PREFETCH FILTER
FILTER_SET: 1024

*** ChampSim Multicore Out-of-Order Simulator ***

Warmup Instructions: 50000000
Simulation Instructions: 50000000
Number of CPUs: 1
LLC sets: 2048
LLC ways: 16
Off-chip DRAM Size: 4096 MB Channels: 1 Width: 64-bit Data Rate: 3200 MT/s

CPU 0 runs /home/ChampSim-master//dpc3_traces/server_023.champsimtrace.xz
L1I D-JOLT instruction prefetcher has been constructed!
CPU 0 L1D next line prefetcher
Heartbeat CPU 0 instructions: 10000000 cycles: 3498017 heartbeat IPC: 2.85876 cumulative IPC: 2.85876 (Simulation time: 0 hr 3 min 10 sec) 
Heartbeat CPU 0 instructions: 20000000 cycles: 6995712 heartbeat IPC: 2.85903 cumulative IPC: 2.85889 (Simulation time: 0 hr 6 min 19 sec) 
Heartbeat CPU 0 instructions: 30000001 cycles: 10486142 heartbeat IPC: 2.86498 cumulative IPC: 2.86092 (Simulation time: 0 hr 9 min 41 sec) 
Heartbeat CPU 0 instructions: 40000003 cycles: 13983009 heartbeat IPC: 2.8597 cumulative IPC: 2.86061 (Simulation time: 0 hr 13 min 5 sec) 
Heartbeat CPU 0 instructions: 50000001 cycles: 17481062 heartbeat IPC: 2.85873 cumulative IPC: 2.86024 (Simulation time: 0 hr 15 min 52 sec) 

Warmup complete CPU 0 instructions: 50000001 cycles: 17481062 (Simulation time: 0 hr 15 min 52 sec) 

Heartbeat CPU 0 instructions: 60000002 cycles: 24222826 heartbeat IPC: 1.48329 cumulative IPC: 1.48329 (Simulation time: 0 hr 18 min 37 sec) 
Heartbeat CPU 0 instructions: 70000002 cycles: 31171041 heartbeat IPC: 1.43922 cumulative IPC: 1.46092 (Simulation time: 0 hr 21 min 40 sec) 
Heartbeat CPU 0 instructions: 80000000 cycles: 38027462 heartbeat IPC: 1.45849 cumulative IPC: 1.46011 (Simulation time: 0 hr 24 min 24 sec) 
Heartbeat CPU 0 instructions: 90000000 cycles: 44923256 heartbeat IPC: 1.45016 cumulative IPC: 1.45761 (Simulation time: 0 hr 26 min 4 sec) 
Heartbeat CPU 0 instructions: 100000001 cycles: 51748407 heartbeat IPC: 1.46517 cumulative IPC: 1.45912 (Simulation time: 0 hr 27 min 11 sec) 
Finished CPU 0 instructions: 50000000 cycles: 34267345 cumulative IPC: 1.45912 (Simulation time: 0 hr 27 min 11 sec) 

ChampSim completed all CPUs

Region of Interest Statistics

CPU 0 cumulative IPC: 1.45912 instructions: 50000000 cycles: 34267345
L1D TOTAL     ACCESS:   19338726  HIT:   17871900  MISS:    1466826
L1D LOAD      ACCESS:    6838062  HIT:    6177204  MISS:     660858
L1D RFO       ACCESS:    5983996  HIT:    5722973  MISS:     261023
L1D PREFETCH  ACCESS:    6516668  HIT:    5971723  MISS:     544945
L1D WRITEBACK ACCESS:          0  HIT:          0  MISS:          0
L1D PREFETCH  REQUESTED:    6889584  ISSUED:    6767597  USEFUL:     130332  USELESS:     414620
L1D AVERAGE MISS LATENCY: 24.9549 cycles
L1I TOTAL     ACCESS:   15190723  HIT:   12257307  MISS:    2933416
L1I LOAD      ACCESS:    9449174  HIT:    9402988  MISS:      46186
L1I RFO       ACCESS:          0  HIT:          0  MISS:          0
L1I PREFETCH  ACCESS:    5741549  HIT:    2854319  MISS:    2887230
L1I WRITEBACK ACCESS:          0  HIT:          0  MISS:          0
L1I PREFETCH  REQUESTED:    6078614  ISSUED:    5997004  USEFUL:    2405521  USELESS:     481701
L1I AVERAGE MISS LATENCY: 19.5072 cycles
L2C TOTAL     ACCESS:    6143978  HIT:    5367814  MISS:     776164
L2C LOAD      ACCESS:     642858  HIT:     505023  MISS:     137835
L2C RFO       ACCESS:     259401  HIT:     178009  MISS:      81392
L2C PREFETCH  ACCESS:    4742447  HIT:    4189347  MISS:     553100
L2C WRITEBACK ACCESS:     499272  HIT:     495435  MISS:       3837
L2C PREFETCH  REQUESTED:    4294638  ISSUED:    4287598  USEFUL:      13721  USELESS:     539528
L2C AVERAGE MISS LATENCY: 40.4475 cycles
LLC TOTAL     ACCESS:    2064065  HIT:    2013034  MISS:      51031
LLC LOAD      ACCESS:     137655  HIT:     131384  MISS:       6271
LLC RFO       ACCESS:      81386  HIT:      63463  MISS:      17923
LLC PREFETCH  ACCESS:    1703662  HIT:    1677098  MISS:      26564
LLC WRITEBACK ACCESS:     141362  HIT:     141089  MISS:        273
LLC PREFETCH  REQUESTED:          0  ISSUED:          0  USEFUL:       2434  USELESS:      24697
LLC AVERAGE MISS LATENCY: 181.214 cycles
Major fault: 0 Minor fault: 2777
CPU 0 L1D next line prefetcher final stats

DRAM Statistics
 CHANNEL 0
 RQ ROW_BUFFER_HIT:      15466  ROW_BUFFER_MISS:      35280
 DBUS_CONGESTED:      31418
 WQ ROW_BUFFER_HIT:       2277  ROW_BUFFER_MISS:      18716  FULL:          0

 AVG_CONGESTED_CYCLE: 6

CPU 0 Branch Prediction Accuracy: 99.6798% MPKI: 0.58608 Average ROB Occupancy at Mispredict: 147.303

Branch types
NOT_BRANCH: 40848357 81.6967%
BRANCH_DIRECT_JUMP: 548373 1.09675%
BRANCH_INDIRECT: 189802 0.379604%
BRANCH_CONDITIONAL: 6372774 12.7455%
BRANCH_DIRECT_CALL: 862207 1.72441%
BRANCH_INDIRECT_CALL: 158149 0.316298%
BRANCH_RETURN: 1020345 2.04069%
BRANCH_OTHER: 0 0%

