Initialize SIGNATURE TABLE
ST_SET: 1
ST_WAY: 256
ST_TAG_BIT: 16
ST_TAG_MASK: ffff

Initialize PATTERN TABLE
PT_SET: 512
PT_WAY: 4
SIG_DELTA_BIT: 7
C_SIG_BIT: 4
C_DELTA_BIT: 4

Initialize PREFETCH FILTER
FILTER_SET: 1024

*** ChampSim Multicore Out-of-Order Simulator ***

Warmup Instructions: 50000000
Simulation Instructions: 50000000
Number of CPUs: 1
LLC sets: 2048
LLC ways: 16
Off-chip DRAM Size: 4096 MB Channels: 1 Width: 64-bit Data Rate: 3200 MT/s

CPU 0 runs /home/ChampSim-master//dpc3_traces/server_034.champsimtrace.xz
L1I D-JOLT instruction prefetcher has been constructed!
CPU 0 L1D next line prefetcher
Heartbeat CPU 0 instructions: 10000000 cycles: 3331658 heartbeat IPC: 3.00151 cumulative IPC: 3.00151 (Simulation time: 0 hr 2 min 41 sec) 
Heartbeat CPU 0 instructions: 20000002 cycles: 6656002 heartbeat IPC: 3.00811 cumulative IPC: 3.00481 (Simulation time: 0 hr 5 min 23 sec) 
Heartbeat CPU 0 instructions: 30000003 cycles: 9988187 heartbeat IPC: 3.00103 cumulative IPC: 3.00355 (Simulation time: 0 hr 8 min 9 sec) 
Heartbeat CPU 0 instructions: 40000001 cycles: 13318777 heartbeat IPC: 3.00247 cumulative IPC: 3.00328 (Simulation time: 0 hr 10 min 51 sec) 
Heartbeat CPU 0 instructions: 50000000 cycles: 16648692 heartbeat IPC: 3.00308 cumulative IPC: 3.00324 (Simulation time: 0 hr 13 min 36 sec) 

Warmup complete CPU 0 instructions: 50000002 cycles: 16648693 (Simulation time: 0 hr 13 min 37 sec) 

Heartbeat CPU 0 instructions: 60000002 cycles: 22585080 heartbeat IPC: 1.68453 cumulative IPC: 1.68453 (Simulation time: 0 hr 16 min 14 sec) 
Heartbeat CPU 0 instructions: 70000003 cycles: 28934517 heartbeat IPC: 1.57494 cumulative IPC: 1.62789 (Simulation time: 0 hr 18 min 49 sec) 
Heartbeat CPU 0 instructions: 80000002 cycles: 34964669 heartbeat IPC: 1.65833 cumulative IPC: 1.63791 (Simulation time: 0 hr 21 min 22 sec) 
Heartbeat CPU 0 instructions: 90000002 cycles: 40991724 heartbeat IPC: 1.65919 cumulative IPC: 1.64318 (Simulation time: 0 hr 23 min 57 sec) 
Heartbeat CPU 0 instructions: 100000002 cycles: 46985247 heartbeat IPC: 1.66847 cumulative IPC: 1.64818 (Simulation time: 0 hr 25 min 52 sec) 
Finished CPU 0 instructions: 50000000 cycles: 30336554 cumulative IPC: 1.64818 (Simulation time: 0 hr 25 min 52 sec) 

ChampSim completed all CPUs

Region of Interest Statistics

CPU 0 cumulative IPC: 1.64818 instructions: 50000000 cycles: 30336554
L1D TOTAL     ACCESS:   18228688  HIT:   16804608  MISS:    1424080
L1D LOAD      ACCESS:    6123035  HIT:    5466852  MISS:     656183
L1D RFO       ACCESS:    6163357  HIT:    6020785  MISS:     142572
L1D PREFETCH  ACCESS:    5942296  HIT:    5316971  MISS:     625325
L1D WRITEBACK ACCESS:          0  HIT:          0  MISS:          0
L1D PREFETCH  REQUESTED:    6157836  ISSUED:    6067665  USEFUL:     140908  USELESS:     484386
L1D AVERAGE MISS LATENCY: 17.8324 cycles
L1I TOTAL     ACCESS:   19363492  HIT:   15362425  MISS:    4001067
L1I LOAD      ACCESS:    9672934  HIT:    9618197  MISS:      54737
L1I RFO       ACCESS:          0  HIT:          0  MISS:          0
L1I PREFETCH  ACCESS:    9690558  HIT:    5744228  MISS:    3946330
L1I WRITEBACK ACCESS:          0  HIT:          0  MISS:          0
L1I PREFETCH  REQUESTED:   10330279  ISSUED:   10097242  USEFUL:    3327988  USELESS:     618296
L1I AVERAGE MISS LATENCY: 15.0817 cycles
L2C TOTAL     ACCESS:    7492810  HIT:    7360922  MISS:     131888
L2C LOAD      ACCESS:     699132  HIT:     657299  MISS:      41833
L2C RFO       ACCESS:     140736  HIT:     130267  MISS:      10469
L2C PREFETCH  ACCESS:    6302158  HIT:    6224410  MISS:      77748
L2C WRITEBACK ACCESS:     350784  HIT:     348946  MISS:       1838
L2C PREFETCH  REQUESTED:    5852568  ISSUED:    5834511  USEFUL:       3015  USELESS:      74212
L2C AVERAGE MISS LATENCY: 40.0661 cycles
LLC TOTAL     ACCESS:    1849981  HIT:    1834369  MISS:      15612
LLC LOAD      ACCESS:      41749  HIT:      38845  MISS:       2904
LLC RFO       ACCESS:      10469  HIT:      10092  MISS:        377
LLC PREFETCH  ACCESS:    1754125  HIT:    1741871  MISS:      12254
LLC WRITEBACK ACCESS:      43638  HIT:      43561  MISS:         77
LLC PREFETCH  REQUESTED:          0  ISSUED:          0  USEFUL:       3099  USELESS:       6492
LLC AVERAGE MISS LATENCY: 162.68 cycles
Major fault: 0 Minor fault: 1174
CPU 0 L1D next line prefetcher final stats

DRAM Statistics
 CHANNEL 0
 RQ ROW_BUFFER_HIT:       3786  ROW_BUFFER_MISS:      11741
 DBUS_CONGESTED:       6517
 WQ ROW_BUFFER_HIT:       1179  ROW_BUFFER_MISS:       3529  FULL:          0

 AVG_CONGESTED_CYCLE: 5

CPU 0 Branch Prediction Accuracy: 99.926% MPKI: 0.14472 Average ROB Occupancy at Mispredict: 265.612

Branch types
NOT_BRANCH: 40221101 80.4422%
BRANCH_DIRECT_JUMP: 771319 1.54264%
BRANCH_INDIRECT: 108663 0.217326%
BRANCH_CONDITIONAL: 6375047 12.7501%
BRANCH_DIRECT_CALL: 1049638 2.09928%
BRANCH_INDIRECT_CALL: 212283 0.424566%
BRANCH_RETURN: 1261926 2.52385%
BRANCH_OTHER: 0 0%

