Initialize SIGNATURE TABLE
ST_SET: 1
ST_WAY: 256
ST_TAG_BIT: 16
ST_TAG_MASK: ffff

Initialize PATTERN TABLE
PT_SET: 512
PT_WAY: 4
SIG_DELTA_BIT: 7
C_SIG_BIT: 4
C_DELTA_BIT: 4

Initialize PREFETCH FILTER
FILTER_SET: 1024

*** ChampSim Multicore Out-of-Order Simulator ***

Warmup Instructions: 50000000
Simulation Instructions: 50000000
Number of CPUs: 1
LLC sets: 2048
LLC ways: 16
Off-chip DRAM Size: 4096 MB Channels: 1 Width: 64-bit Data Rate: 3200 MT/s

CPU 0 runs /home/ChampSim-master//dpc3_traces/server_017.champsimtrace.xz
L1I D-JOLT instruction prefetcher has been constructed!
CPU 0 L1D next line prefetcher
Heartbeat CPU 0 instructions: 10000001 cycles: 3622703 heartbeat IPC: 2.76037 cumulative IPC: 2.76037 (Simulation time: 0 hr 3 min 14 sec) 
Heartbeat CPU 0 instructions: 20000000 cycles: 7243323 heartbeat IPC: 2.76196 cumulative IPC: 2.76116 (Simulation time: 0 hr 6 min 13 sec) 
Heartbeat CPU 0 instructions: 30000002 cycles: 10870481 heartbeat IPC: 2.75698 cumulative IPC: 2.75977 (Simulation time: 0 hr 9 min 16 sec) 
Heartbeat CPU 0 instructions: 40000000 cycles: 14492980 heartbeat IPC: 2.76052 cumulative IPC: 2.75996 (Simulation time: 0 hr 12 min 20 sec) 
Heartbeat CPU 0 instructions: 50000001 cycles: 18126472 heartbeat IPC: 2.75217 cumulative IPC: 2.7584 (Simulation time: 0 hr 15 min 17 sec) 

Warmup complete CPU 0 instructions: 50000001 cycles: 18126472 (Simulation time: 0 hr 15 min 17 sec) 

Heartbeat CPU 0 instructions: 60000002 cycles: 35533652 heartbeat IPC: 0.574476 cumulative IPC: 0.574476 (Simulation time: 0 hr 18 min 40 sec) 
Heartbeat CPU 0 instructions: 70000002 cycles: 53137935 heartbeat IPC: 0.568044 cumulative IPC: 0.571241 (Simulation time: 0 hr 22 min 10 sec) 
Heartbeat CPU 0 instructions: 80000000 cycles: 70429175 heartbeat IPC: 0.578327 cumulative IPC: 0.573584 (Simulation time: 0 hr 25 min 3 sec) 
Heartbeat CPU 0 instructions: 90000002 cycles: 93541937 heartbeat IPC: 0.432661 cumulative IPC: 0.530395 (Simulation time: 0 hr 26 min 37 sec) 
Heartbeat CPU 0 instructions: 100000003 cycles: 113462417 heartbeat IPC: 0.501996 cumulative IPC: 0.524461 (Simulation time: 0 hr 27 min 11 sec) 
Finished CPU 0 instructions: 50000002 cycles: 95335945 cumulative IPC: 0.524461 (Simulation time: 0 hr 27 min 11 sec) 

ChampSim completed all CPUs

Region of Interest Statistics

CPU 0 cumulative IPC: 0.524461 instructions: 50000002 cycles: 95335945
L1D TOTAL     ACCESS:   18373986  HIT:   16208441  MISS:    2165545
L1D LOAD      ACCESS:    7022802  HIT:    6279286  MISS:     743516
L1D RFO       ACCESS:    5514591  HIT:    4655384  MISS:     859207
L1D PREFETCH  ACCESS:    5836593  HIT:    5273771  MISS:     562822
L1D WRITEBACK ACCESS:          0  HIT:          0  MISS:          0
L1D PREFETCH  REQUESTED:    7060722  ISSUED:    6871133  USEFUL:     200459  USELESS:     362422
L1D AVERAGE MISS LATENCY: 177.39 cycles
L1I TOTAL     ACCESS:   17581765  HIT:   14575196  MISS:    3006569
L1I LOAD      ACCESS:    9906964  HIT:    9870395  MISS:      36569
L1I RFO       ACCESS:          0  HIT:          0  MISS:          0
L1I PREFETCH  ACCESS:    7674801  HIT:    4704801  MISS:    2970000
L1I WRITEBACK ACCESS:          0  HIT:          0  MISS:          0
L1I PREFETCH  REQUESTED:    8224483  ISSUED:    8176464  USEFUL:    2425847  USELESS:     544163
L1I AVERAGE MISS LATENCY: 18.2508 cycles
L2C TOTAL     ACCESS:    7607432  HIT:    5759684  MISS:    1847748
L2C LOAD      ACCESS:     571112  HIT:     240703  MISS:     330409
L2C RFO       ACCESS:     858726  HIT:      17530  MISS:     841196
L2C PREFETCH  ACCESS:    5054694  HIT:    4380666  MISS:     674028
L2C WRITEBACK ACCESS:    1122900  HIT:    1120785  MISS:       2115
L2C PREFETCH  REQUESTED:    4780895  ISSUED:    4776622  USEFUL:      20775  USELESS:     653962
L2C AVERAGE MISS LATENCY: 211.48 cycles
LLC TOTAL     ACCESS:    4184852  HIT:    2655548  MISS:    1529304
LLC LOAD      ACCESS:     330345  HIT:     172815  MISS:     157530
LLC RFO       ACCESS:     841195  HIT:     123012  MISS:     718183
LLC PREFETCH  ACCESS:    1951237  HIT:    1299766  MISS:     651471
LLC WRITEBACK ACCESS:    1062075  HIT:    1059955  MISS:       2120
LLC PREFETCH  REQUESTED:          0  ISSUED:          0  USEFUL:      48787  USELESS:     601998
LLC AVERAGE MISS LATENCY: 270.863 cycles
Major fault: 0 Minor fault: 24698
CPU 0 L1D next line prefetcher final stats

DRAM Statistics
 CHANNEL 0
 RQ ROW_BUFFER_HIT:     376214  ROW_BUFFER_MISS:    1150755
 DBUS_CONGESTED:    1476951
 WQ ROW_BUFFER_HIT:     244918  ROW_BUFFER_MISS:     633840  FULL:          0

 AVG_CONGESTED_CYCLE: 6

CPU 0 Branch Prediction Accuracy: 99.2833% MPKI: 1.20568 Average ROB Occupancy at Mispredict: 182.331

Branch types
NOT_BRANCH: 41588346 83.1767%
BRANCH_DIRECT_JUMP: 464501 0.929002%
BRANCH_INDIRECT: 45704 0.091408%
BRANCH_CONDITIONAL: 6147408 12.2948%
BRANCH_DIRECT_CALL: 675450 1.3509%
BRANCH_INDIRECT_CALL: 201532 0.403064%
BRANCH_RETURN: 876985 1.75397%
BRANCH_OTHER: 0 0%

