Initialize SIGNATURE TABLE
ST_SET: 1
ST_WAY: 256
ST_TAG_BIT: 16
ST_TAG_MASK: ffff

Initialize PATTERN TABLE
PT_SET: 512
PT_WAY: 4
SIG_DELTA_BIT: 7
C_SIG_BIT: 4
C_DELTA_BIT: 4

Initialize PREFETCH FILTER
FILTER_SET: 1024

*** ChampSim Multicore Out-of-Order Simulator ***

Warmup Instructions: 50000000
Simulation Instructions: 50000000
Number of CPUs: 1
LLC sets: 2048
LLC ways: 16
Off-chip DRAM Size: 4096 MB Channels: 1 Width: 64-bit Data Rate: 3200 MT/s

CPU 0 runs /home/ChampSim-master//dpc3_traces/server_003.champsimtrace.xz
CPU 0 EPI prefetcher
CPU 0 L1D next line prefetcher
Heartbeat CPU 0 instructions: 10000002 cycles: 3222403 heartbeat IPC: 3.10327 cumulative IPC: 3.10327 (Simulation time: 0 hr 3 min 26 sec) 
Heartbeat CPU 0 instructions: 20000000 cycles: 6540302 heartbeat IPC: 3.01395 cumulative IPC: 3.05796 (Simulation time: 0 hr 6 min 15 sec) 
Heartbeat CPU 0 instructions: 30000000 cycles: 9749012 heartbeat IPC: 3.11652 cumulative IPC: 3.07723 (Simulation time: 0 hr 9 min 35 sec) 
Heartbeat CPU 0 instructions: 40000001 cycles: 13164594 heartbeat IPC: 2.92776 cumulative IPC: 3.03845 (Simulation time: 0 hr 13 min 28 sec) 
Heartbeat CPU 0 instructions: 50000003 cycles: 16883278 heartbeat IPC: 2.68912 cumulative IPC: 2.96151 (Simulation time: 0 hr 16 min 54 sec) 

Warmup complete CPU 0 instructions: 50000003 cycles: 16883278 (Simulation time: 0 hr 16 min 54 sec) 

Heartbeat CPU 0 instructions: 60000000 cycles: 26151105 heartbeat IPC: 1.079 cumulative IPC: 1.079 (Simulation time: 0 hr 19 min 29 sec) 
Heartbeat CPU 0 instructions: 70000003 cycles: 35322832 heartbeat IPC: 1.09031 cumulative IPC: 1.08462 (Simulation time: 0 hr 21 min 47 sec) 
Heartbeat CPU 0 instructions: 80000000 cycles: 45357702 heartbeat IPC: 0.996525 cumulative IPC: 1.05358 (Simulation time: 0 hr 24 min 11 sec) 
Heartbeat CPU 0 instructions: 90000001 cycles: 55253389 heartbeat IPC: 1.01054 cumulative IPC: 1.04248 (Simulation time: 0 hr 26 min 36 sec) 
Heartbeat CPU 0 instructions: 100000001 cycles: 65915103 heartbeat IPC: 0.937935 cumulative IPC: 1.01975 (Simulation time: 0 hr 28 min 28 sec) 
Finished CPU 0 instructions: 50000002 cycles: 49031826 cumulative IPC: 1.01975 (Simulation time: 0 hr 28 min 28 sec) 

ChampSim completed all CPUs

Region of Interest Statistics

CPU 0 cumulative IPC: 1.01975 instructions: 50000002 cycles: 49031826
L1D TOTAL     ACCESS:   19977731  HIT:   18836944  MISS:    1140787
L1D LOAD      ACCESS:    7842546  HIT:    7312342  MISS:     530204
L1D RFO       ACCESS:    4552549  HIT:    4435219  MISS:     117330
L1D PREFETCH  ACCESS:    7582636  HIT:    7089383  MISS:     493253
L1D WRITEBACK ACCESS:          0  HIT:          0  MISS:          0
L1D PREFETCH  REQUESTED:    7901671  ISSUED:    7809837  USEFUL:     155048  USELESS:     338164
L1D AVERAGE MISS LATENCY: 53.8711 cycles
L1I TOTAL     ACCESS:   31492616  HIT:   30214888  MISS:    1277728
L1I LOAD      ACCESS:    9291396  HIT:    9170599  MISS:     120797
L1I RFO       ACCESS:          0  HIT:          0  MISS:          0
L1I PREFETCH  ACCESS:   22201220  HIT:   21044289  MISS:    1156931
L1I WRITEBACK ACCESS:          0  HIT:          0  MISS:          0
L1I PREFETCH  REQUESTED:   27716255  ISSUED:   27716255  USEFUL:     820103  USELESS:     336869
L1I AVERAGE MISS LATENCY: 36.4733 cycles
L2C TOTAL     ACCESS:    3244455  HIT:    2286260  MISS:     958195
L2C LOAD      ACCESS:     594078  HIT:     320519  MISS:     273559
L2C RFO       ACCESS:     114625  HIT:      41128  MISS:      73497
L2C PREFETCH  ACCESS:    2251493  HIT:    1641361  MISS:     610132
L2C WRITEBACK ACCESS:     284259  HIT:     283252  MISS:       1007
L2C PREFETCH  REQUESTED:    2573487  ISSUED:    2570703  USEFUL:      31046  USELESS:     576551
L2C AVERAGE MISS LATENCY: 77.656 cycles
LLC TOTAL     ACCESS:    1825684  HIT:    1470454  MISS:     355230
LLC LOAD      ACCESS:     272156  HIT:     197043  MISS:      75113
LLC RFO       ACCESS:      73495  HIT:      32074  MISS:      41421
LLC PREFETCH  ACCESS:    1316148  HIT:    1078897  MISS:     237251
LLC WRITEBACK ACCESS:     163885  HIT:     162440  MISS:       1445
LLC PREFETCH  REQUESTED:          0  ISSUED:          0  USEFUL:      41663  USELESS:     185333
LLC AVERAGE MISS LATENCY: 183.305 cycles
Major fault: 0 Minor fault: 7774
CPU 0 L1I EPI prefetcher final stats
CPU 0 L1D next line prefetcher final stats

DRAM Statistics
 CHANNEL 0
 RQ ROW_BUFFER_HIT:      77486  ROW_BUFFER_MISS:     276240
 DBUS_CONGESTED:     178322
 WQ ROW_BUFFER_HIT:      24791  ROW_BUFFER_MISS:      77231  FULL:          0

 AVG_CONGESTED_CYCLE: 5

CPU 0 Branch Prediction Accuracy: 95.439% MPKI: 9.02702 Average ROB Occupancy at Mispredict: 67.607

Branch types
NOT_BRANCH: 40104088 80.2082%
BRANCH_DIRECT_JUMP: 497928 0.995856%
BRANCH_INDIRECT: 130587 0.261174%
BRANCH_CONDITIONAL: 7219018 14.438%
BRANCH_DIRECT_CALL: 625807 1.25161%
BRANCH_INDIRECT_CALL: 389787 0.779574%
BRANCH_RETURN: 1032747 2.06549%
BRANCH_OTHER: 0 0%

