Initialize SIGNATURE TABLE
ST_SET: 1
ST_WAY: 256
ST_TAG_BIT: 16
ST_TAG_MASK: ffff

Initialize PATTERN TABLE
PT_SET: 512
PT_WAY: 4
SIG_DELTA_BIT: 7
C_SIG_BIT: 4
C_DELTA_BIT: 4

Initialize PREFETCH FILTER
FILTER_SET: 1024

*** ChampSim Multicore Out-of-Order Simulator ***

Warmup Instructions: 50000000
Simulation Instructions: 50000000
Number of CPUs: 1
LLC sets: 2048
LLC ways: 16
Off-chip DRAM Size: 4096 MB Channels: 1 Width: 64-bit Data Rate: 3200 MT/s

CPU 0 runs /home/ChampSim-master//dpc3_traces/server_014.champsimtrace.xz
L1I D-JOLT instruction prefetcher has been constructed!
CPU 0 L1D next line prefetcher
Heartbeat CPU 0 instructions: 10000003 cycles: 3519573 heartbeat IPC: 2.84125 cumulative IPC: 2.84125 (Simulation time: 0 hr 2 min 46 sec) 
Heartbeat CPU 0 instructions: 20000000 cycles: 7106478 heartbeat IPC: 2.78792 cumulative IPC: 2.81433 (Simulation time: 0 hr 5 min 37 sec) 
Heartbeat CPU 0 instructions: 30000001 cycles: 10648017 heartbeat IPC: 2.82363 cumulative IPC: 2.81743 (Simulation time: 0 hr 8 min 28 sec) 
Heartbeat CPU 0 instructions: 40000003 cycles: 14196239 heartbeat IPC: 2.81831 cumulative IPC: 2.81765 (Simulation time: 0 hr 11 min 14 sec) 
Heartbeat CPU 0 instructions: 50000000 cycles: 17744913 heartbeat IPC: 2.81795 cumulative IPC: 2.81771 (Simulation time: 0 hr 13 min 59 sec) 

Warmup complete CPU 0 instructions: 50000001 cycles: 17744914 (Simulation time: 0 hr 13 min 59 sec) 

Heartbeat CPU 0 instructions: 60000000 cycles: 24032164 heartbeat IPC: 1.59052 cumulative IPC: 1.59052 (Simulation time: 0 hr 16 min 40 sec) 
Heartbeat CPU 0 instructions: 70000003 cycles: 30325006 heartbeat IPC: 1.58911 cumulative IPC: 1.58981 (Simulation time: 0 hr 19 min 16 sec) 
*** Reached end of trace for Core: 0 Repeating trace: /home/ChampSim-master//dpc3_traces/server_014.champsimtrace.xz
Heartbeat CPU 0 instructions: 80000001 cycles: 36895969 heartbeat IPC: 1.52185 cumulative IPC: 1.56649 (Simulation time: 0 hr 21 min 52 sec) 
Heartbeat CPU 0 instructions: 90000003 cycles: 44394495 heartbeat IPC: 1.3336 cumulative IPC: 1.50096 (Simulation time: 0 hr 24 min 18 sec) 
Heartbeat CPU 0 instructions: 100000001 cycles: 50885652 heartbeat IPC: 1.54056 cumulative IPC: 1.50872 (Simulation time: 0 hr 25 min 53 sec) 
Finished CPU 0 instructions: 50000000 cycles: 33140738 cumulative IPC: 1.50872 (Simulation time: 0 hr 25 min 53 sec) 

ChampSim completed all CPUs

Region of Interest Statistics

CPU 0 cumulative IPC: 1.50872 instructions: 50000000 cycles: 33140738
L1D TOTAL     ACCESS:   21631501  HIT:   21560641  MISS:      70860
L1D LOAD      ACCESS:    6675980  HIT:    6649061  MISS:      26919
L1D RFO       ACCESS:    8412754  HIT:    8380685  MISS:      32069
L1D PREFETCH  ACCESS:    6542767  HIT:    6530895  MISS:      11872
L1D WRITEBACK ACCESS:          0  HIT:          0  MISS:          0
L1D PREFETCH  REQUESTED:    6680371  ISSUED:    6570489  USEFUL:       3320  USELESS:       8552
L1D AVERAGE MISS LATENCY: 229.569 cycles
L1I TOTAL     ACCESS:   19994296  HIT:   15872270  MISS:    4122026
L1I LOAD      ACCESS:    9760558  HIT:    9736272  MISS:      24286
L1I RFO       ACCESS:          0  HIT:          0  MISS:          0
L1I PREFETCH  ACCESS:   10233738  HIT:    6135998  MISS:    4097740
L1I WRITEBACK ACCESS:          0  HIT:          0  MISS:          0
L1I PREFETCH  REQUESTED:   10861667  ISSUED:   10599359  USEFUL:    2729656  USELESS:    1368061
L1I AVERAGE MISS LATENCY: 14.9104 cycles
L2C TOTAL     ACCESS:    5993829  HIT:    5921766  MISS:      72063
L2C LOAD      ACCESS:      45282  HIT:      26372  MISS:      18910
L2C RFO       ACCESS:      32021  HIT:       1095  MISS:      30926
L2C PREFETCH  ACCESS:    5878157  HIT:    5855947  MISS:      22210
L2C WRITEBACK ACCESS:      38369  HIT:      38352  MISS:         17
L2C PREFETCH  REQUESTED:    4322671  ISSUED:    4319764  USEFUL:       1495  USELESS:      20480
L2C AVERAGE MISS LATENCY: 258.243 cycles
LLC TOTAL     ACCESS:     966074  HIT:     900083  MISS:      65991
LLC LOAD      ACCESS:      17727  HIT:       5276  MISS:      12451
LLC RFO       ACCESS:      30926  HIT:       4536  MISS:      26390
LLC PREFETCH  ACCESS:     882576  HIT:     855528  MISS:      27048
LLC WRITEBACK ACCESS:      34845  HIT:      34743  MISS:        102
LLC PREFETCH  REQUESTED:          0  ISSUED:          0  USEFUL:       4551  USELESS:      23402
LLC AVERAGE MISS LATENCY: 313.382 cycles
Major fault: 0 Minor fault: 1918
CPU 0 L1D next line prefetcher final stats

DRAM Statistics
 CHANNEL 0
 RQ ROW_BUFFER_HIT:      28904  ROW_BUFFER_MISS:      36984
 DBUS_CONGESTED:      66446
 WQ ROW_BUFFER_HIT:       8390  ROW_BUFFER_MISS:      24187  FULL:          0

 AVG_CONGESTED_CYCLE: 6

CPU 0 Branch Prediction Accuracy: 99.7719% MPKI: 0.38824 Average ROB Occupancy at Mispredict: 155.839

Branch types
NOT_BRANCH: 41488990 82.978%
BRANCH_DIRECT_JUMP: 449417 0.898834%
BRANCH_INDIRECT: 2330 0.00466%
BRANCH_CONDITIONAL: 5470015 10.94%
BRANCH_DIRECT_CALL: 1172187 2.34437%
BRANCH_INDIRECT_CALL: 122383 0.244766%
BRANCH_RETURN: 1294554 2.58911%
BRANCH_OTHER: 0 0%

