Initialize SIGNATURE TABLE
ST_SET: 1
ST_WAY: 256
ST_TAG_BIT: 16
ST_TAG_MASK: ffff

Initialize PATTERN TABLE
PT_SET: 512
PT_WAY: 4
SIG_DELTA_BIT: 7
C_SIG_BIT: 4
C_DELTA_BIT: 4

Initialize PREFETCH FILTER
FILTER_SET: 1024

*** ChampSim Multicore Out-of-Order Simulator ***

Warmup Instructions: 50000000
Simulation Instructions: 50000000
Number of CPUs: 1
LLC sets: 2048
LLC ways: 16
Off-chip DRAM Size: 4096 MB Channels: 1 Width: 64-bit Data Rate: 3200 MT/s

CPU 0 runs /home/ChampSim-master//dpc3_traces/server_013.champsimtrace.xz
CPU 0 EPI prefetcher
CPU 0 L1D next line prefetcher
Heartbeat CPU 0 instructions: 10000000 cycles: 3215099 heartbeat IPC: 3.11032 cumulative IPC: 3.11032 (Simulation time: 0 hr 2 min 59 sec) 
Heartbeat CPU 0 instructions: 20000001 cycles: 6419298 heartbeat IPC: 3.12091 cumulative IPC: 3.11561 (Simulation time: 0 hr 5 min 58 sec) 
Heartbeat CPU 0 instructions: 30000002 cycles: 9626646 heartbeat IPC: 3.11784 cumulative IPC: 3.11635 (Simulation time: 0 hr 8 min 57 sec) 
Heartbeat CPU 0 instructions: 40000002 cycles: 12829245 heartbeat IPC: 3.12246 cumulative IPC: 3.11788 (Simulation time: 0 hr 11 min 55 sec) 
Heartbeat CPU 0 instructions: 50000000 cycles: 16032855 heartbeat IPC: 3.12148 cumulative IPC: 3.1186 (Simulation time: 0 hr 14 min 52 sec) 

Warmup complete CPU 0 instructions: 50000004 cycles: 16032856 (Simulation time: 0 hr 14 min 52 sec) 

Heartbeat CPU 0 instructions: 60000000 cycles: 23509598 heartbeat IPC: 1.33748 cumulative IPC: 1.33748 (Simulation time: 0 hr 17 min 33 sec) 
Heartbeat CPU 0 instructions: 70000002 cycles: 31155617 heartbeat IPC: 1.30787 cumulative IPC: 1.32251 (Simulation time: 0 hr 20 min 6 sec) 
Heartbeat CPU 0 instructions: 80000003 cycles: 38254002 heartbeat IPC: 1.40877 cumulative IPC: 1.35007 (Simulation time: 0 hr 22 min 36 sec) 
Heartbeat CPU 0 instructions: 90000003 cycles: 45521025 heartbeat IPC: 1.37608 cumulative IPC: 1.35648 (Simulation time: 0 hr 25 min 8 sec) 
Heartbeat CPU 0 instructions: 100000003 cycles: 52794857 heartbeat IPC: 1.37479 cumulative IPC: 1.3601 (Simulation time: 0 hr 27 min 24 sec) 
Finished CPU 0 instructions: 50000003 cycles: 36762002 cumulative IPC: 1.3601 (Simulation time: 0 hr 27 min 24 sec) 

ChampSim completed all CPUs

Region of Interest Statistics

CPU 0 cumulative IPC: 1.3601 instructions: 50000003 cycles: 36762002
L1D TOTAL     ACCESS:   17285830  HIT:   16219389  MISS:    1066441
L1D LOAD      ACCESS:    6298431  HIT:    5797039  MISS:     501392
L1D RFO       ACCESS:    4928017  HIT:    4847918  MISS:      80099
L1D PREFETCH  ACCESS:    6059382  HIT:    5574432  MISS:     484950
L1D WRITEBACK ACCESS:          0  HIT:          0  MISS:          0
L1D PREFETCH  REQUESTED:    6332809  ISSUED:    6238573  USEFUL:     133381  USELESS:     351578
L1D AVERAGE MISS LATENCY: 42.0729 cycles
L1I TOTAL     ACCESS:   30826244  HIT:   28915030  MISS:    1911214
L1I LOAD      ACCESS:    8706474  HIT:    8633621  MISS:      72853
L1I RFO       ACCESS:          0  HIT:          0  MISS:          0
L1I PREFETCH  ACCESS:   22119770  HIT:   20281409  MISS:    1838361
L1I WRITEBACK ACCESS:          0  HIT:          0  MISS:          0
L1I PREFETCH  REQUESTED:   27402518  ISSUED:   27402518  USEFUL:    1369995  USELESS:     468364
L1I AVERAGE MISS LATENCY: 33.5975 cycles
L2C TOTAL     ACCESS:    3800376  HIT:    2435912  MISS:    1364464
L2C LOAD      ACCESS:     518176  HIT:     243315  MISS:     274861
L2C RFO       ACCESS:      78790  HIT:      30544  MISS:      48246
L2C PREFETCH  ACCESS:    2927622  HIT:    1888372  MISS:    1039250
L2C WRITEBACK ACCESS:     275788  HIT:     273681  MISS:       2107
L2C PREFETCH  REQUESTED:    3677671  ISSUED:    3672063  USEFUL:      28061  USELESS:    1010793
L2C AVERAGE MISS LATENCY: 47.6412 cycles
LLC TOTAL     ACCESS:    2524701  HIT:    2356132  MISS:     168569
LLC LOAD      ACCESS:     274523  HIT:     251742  MISS:      22781
LLC RFO       ACCESS:      48232  HIT:      38138  MISS:      10094
LLC PREFETCH  ACCESS:    2028134  HIT:    1892745  MISS:     135389
LLC WRITEBACK ACCESS:     173812  HIT:     173507  MISS:        305
LLC PREFETCH  REQUESTED:          0  ISSUED:          0  USEFUL:      12873  USELESS:     121390
LLC AVERAGE MISS LATENCY: 175.895 cycles
Major fault: 0 Minor fault: 6208
CPU 0 L1I EPI prefetcher final stats
CPU 0 L1D next line prefetcher final stats

DRAM Statistics
 CHANNEL 0
 RQ ROW_BUFFER_HIT:      28122  ROW_BUFFER_MISS:     140125
 DBUS_CONGESTED:      77171
 WQ ROW_BUFFER_HIT:      11845  ROW_BUFFER_MISS:      51547  FULL:          0

 AVG_CONGESTED_CYCLE: 5

CPU 0 Branch Prediction Accuracy: 99.4114% MPKI: 1.0933 Average ROB Occupancy at Mispredict: 124.428

Branch types
NOT_BRANCH: 40713270 81.4265%
BRANCH_DIRECT_JUMP: 463701 0.927402%
BRANCH_INDIRECT: 146544 0.293088%
BRANCH_CONDITIONAL: 6981955 13.9639%
BRANCH_DIRECT_CALL: 665005 1.33001%
BRANCH_INDIRECT_CALL: 165152 0.330304%
BRANCH_RETURN: 864314 1.72863%
BRANCH_OTHER: 0 0%

