Initialize SIGNATURE TABLE
ST_SET: 1
ST_WAY: 256
ST_TAG_BIT: 16
ST_TAG_MASK: ffff

Initialize PATTERN TABLE
PT_SET: 512
PT_WAY: 4
SIG_DELTA_BIT: 7
C_SIG_BIT: 4
C_DELTA_BIT: 4

Initialize PREFETCH FILTER
FILTER_SET: 1024

*** ChampSim Multicore Out-of-Order Simulator ***

Warmup Instructions: 50000000
Simulation Instructions: 50000000
Number of CPUs: 1
LLC sets: 2048
LLC ways: 16
Off-chip DRAM Size: 4096 MB Channels: 1 Width: 64-bit Data Rate: 3200 MT/s

CPU 0 runs /home/ChampSim-master//dpc3_traces/server_012.champsimtrace.xz
L1I D-JOLT instruction prefetcher has been constructed!
CPU 0 L1D next line prefetcher
Heartbeat CPU 0 instructions: 10000002 cycles: 3192606 heartbeat IPC: 3.13224 cumulative IPC: 3.13224 (Simulation time: 0 hr 2 min 51 sec) 
Heartbeat CPU 0 instructions: 20000002 cycles: 6388597 heartbeat IPC: 3.12892 cumulative IPC: 3.13058 (Simulation time: 0 hr 5 min 31 sec) 
Heartbeat CPU 0 instructions: 30000001 cycles: 9585715 heartbeat IPC: 3.12782 cumulative IPC: 3.12966 (Simulation time: 0 hr 8 min 26 sec) 
Heartbeat CPU 0 instructions: 40000000 cycles: 12788676 heartbeat IPC: 3.12211 cumulative IPC: 3.12777 (Simulation time: 0 hr 11 min 43 sec) 
Heartbeat CPU 0 instructions: 50000003 cycles: 15984183 heartbeat IPC: 3.12939 cumulative IPC: 3.12809 (Simulation time: 0 hr 14 min 29 sec) 

Warmup complete CPU 0 instructions: 50000003 cycles: 15984183 (Simulation time: 0 hr 14 min 29 sec) 

Heartbeat CPU 0 instructions: 60000002 cycles: 23056580 heartbeat IPC: 1.41395 cumulative IPC: 1.41395 (Simulation time: 0 hr 16 min 56 sec) 
Heartbeat CPU 0 instructions: 70000000 cycles: 30138001 heartbeat IPC: 1.41215 cumulative IPC: 1.41305 (Simulation time: 0 hr 19 min 26 sec) 
Heartbeat CPU 0 instructions: 80000003 cycles: 37213985 heartbeat IPC: 1.41323 cumulative IPC: 1.41311 (Simulation time: 0 hr 21 min 45 sec) 
Heartbeat CPU 0 instructions: 90000001 cycles: 44542769 heartbeat IPC: 1.36448 cumulative IPC: 1.40063 (Simulation time: 0 hr 23 min 52 sec) 
Heartbeat CPU 0 instructions: 100000002 cycles: 51744403 heartbeat IPC: 1.38857 cumulative IPC: 1.3982 (Simulation time: 0 hr 25 min 29 sec) 
Finished CPU 0 instructions: 50000001 cycles: 35760221 cumulative IPC: 1.3982 (Simulation time: 0 hr 25 min 29 sec) 

ChampSim completed all CPUs

Region of Interest Statistics

CPU 0 cumulative IPC: 1.3982 instructions: 50000001 cycles: 35760221
L1D TOTAL     ACCESS:   17292920  HIT:   16250138  MISS:    1042782
L1D LOAD      ACCESS:    6288247  HIT:    5800309  MISS:     487938
L1D RFO       ACCESS:    4959149  HIT:    4877402  MISS:      81747
L1D PREFETCH  ACCESS:    6045524  HIT:    5572427  MISS:     473097
L1D WRITEBACK ACCESS:          0  HIT:          0  MISS:          0
L1D PREFETCH  REQUESTED:    6322013  ISSUED:    6222957  USEFUL:     132570  USELESS:     340548
L1D AVERAGE MISS LATENCY: 40.2869 cycles
L1I TOTAL     ACCESS:   16419525  HIT:   14444650  MISS:    1974875
L1I LOAD      ACCESS:    8742070  HIT:    8668962  MISS:      73108
L1I RFO       ACCESS:          0  HIT:          0  MISS:          0
L1I PREFETCH  ACCESS:    7677455  HIT:    5775688  MISS:    1901767
L1I WRITEBACK ACCESS:          0  HIT:          0  MISS:          0
L1I PREFETCH  REQUESTED:    8500047  ISSUED:    8026421  USEFUL:    1395407  USELESS:     506431
L1I AVERAGE MISS LATENCY: 30.1486 cycles
L2C TOTAL     ACCESS:    3928545  HIT:    2630778  MISS:    1297767
L2C LOAD      ACCESS:     502454  HIT:     237906  MISS:     264548
L2C RFO       ACCESS:      80621  HIT:      30355  MISS:      50266
L2C PREFETCH  ACCESS:    3069991  HIT:    2088775  MISS:     981216
L2C WRITEBACK ACCESS:     275479  HIT:     273742  MISS:       1737
L2C PREFETCH  REQUESTED:    2887902  ISSUED:    2884830  USEFUL:      26213  USELESS:     955109
L2C AVERAGE MISS LATENCY: 44.404 cycles
LLC TOTAL     ACCESS:    2377939  HIT:    2240511  MISS:     137428
LLC LOAD      ACCESS:     264434  HIT:     246501  MISS:      17933
LLC RFO       ACCESS:      50262  HIT:      40877  MISS:       9385
LLC PREFETCH  ACCESS:    1892910  HIT:    1783108  MISS:     109802
LLC WRITEBACK ACCESS:     170333  HIT:     170025  MISS:        308
LLC PREFETCH  REQUESTED:          0  ISSUED:          0  USEFUL:      10618  USELESS:      99159
LLC AVERAGE MISS LATENCY: 173.234 cycles
Major fault: 0 Minor fault: 5610
CPU 0 L1D next line prefetcher final stats

DRAM Statistics
 CHANNEL 0
 RQ ROW_BUFFER_HIT:      20704  ROW_BUFFER_MISS:     116398
 DBUS_CONGESTED:      58677
 WQ ROW_BUFFER_HIT:      11031  ROW_BUFFER_MISS:      47841  FULL:          0

 AVG_CONGESTED_CYCLE: 5

CPU 0 Branch Prediction Accuracy: 99.4607% MPKI: 1.00288 Average ROB Occupancy at Mispredict: 125.983

Branch types
NOT_BRANCH: 40701162 81.4023%
BRANCH_DIRECT_JUMP: 469810 0.93962%
BRANCH_INDIRECT: 153732 0.307464%
BRANCH_CONDITIONAL: 6944092 13.8882%
BRANCH_DIRECT_CALL: 679880 1.35976%
BRANCH_INDIRECT_CALL: 168745 0.33749%
BRANCH_RETURN: 882493 1.76499%
BRANCH_OTHER: 0 0%

