Initialize SIGNATURE TABLE
ST_SET: 1
ST_WAY: 256
ST_TAG_BIT: 16
ST_TAG_MASK: ffff

Initialize PATTERN TABLE
PT_SET: 512
PT_WAY: 4
SIG_DELTA_BIT: 7
C_SIG_BIT: 4
C_DELTA_BIT: 4

Initialize PREFETCH FILTER
FILTER_SET: 1024

*** ChampSim Multicore Out-of-Order Simulator ***

Warmup Instructions: 50000000
Simulation Instructions: 50000000
Number of CPUs: 1
LLC sets: 2048
LLC ways: 16
Off-chip DRAM Size: 4096 MB Channels: 1 Width: 64-bit Data Rate: 3200 MT/s

CPU 0 runs /home/ChampSim-master//dpc3_traces/server_030.champsimtrace.xz
L1I D-JOLT instruction prefetcher has been constructed!
CPU 0 L1D next line prefetcher
Heartbeat CPU 0 instructions: 10000003 cycles: 3505390 heartbeat IPC: 2.85275 cumulative IPC: 2.85275 (Simulation time: 0 hr 3 min 22 sec) 
Heartbeat CPU 0 instructions: 20000003 cycles: 7010141 heartbeat IPC: 2.85327 cumulative IPC: 2.85301 (Simulation time: 0 hr 6 min 41 sec) 
Heartbeat CPU 0 instructions: 30000000 cycles: 10514716 heartbeat IPC: 2.85341 cumulative IPC: 2.85314 (Simulation time: 0 hr 10 min 2 sec) 
Heartbeat CPU 0 instructions: 40000002 cycles: 14020022 heartbeat IPC: 2.85282 cumulative IPC: 2.85306 (Simulation time: 0 hr 13 min 16 sec) 
Heartbeat CPU 0 instructions: 50000002 cycles: 17528013 heartbeat IPC: 2.85063 cumulative IPC: 2.85258 (Simulation time: 0 hr 15 min 57 sec) 

Warmup complete CPU 0 instructions: 50000002 cycles: 17528013 (Simulation time: 0 hr 15 min 57 sec) 

Heartbeat CPU 0 instructions: 60000000 cycles: 24554999 heartbeat IPC: 1.42308 cumulative IPC: 1.42308 (Simulation time: 0 hr 18 min 30 sec) 
Heartbeat CPU 0 instructions: 70000000 cycles: 31576401 heartbeat IPC: 1.42422 cumulative IPC: 1.42365 (Simulation time: 0 hr 21 min 4 sec) 
Heartbeat CPU 0 instructions: 80000001 cycles: 38593833 heartbeat IPC: 1.42502 cumulative IPC: 1.42411 (Simulation time: 0 hr 23 min 45 sec) 
*** Reached end of trace for Core: 0 Repeating trace: /home/ChampSim-master//dpc3_traces/server_030.champsimtrace.xz
Heartbeat CPU 0 instructions: 90000002 cycles: 45609324 heartbeat IPC: 1.42542 cumulative IPC: 1.42443 (Simulation time: 0 hr 25 min 51 sec) 
Heartbeat CPU 0 instructions: 100000002 cycles: 52623778 heartbeat IPC: 1.42563 cumulative IPC: 1.42467 (Simulation time: 0 hr 26 min 49 sec) 
Finished CPU 0 instructions: 50000000 cycles: 35095765 cumulative IPC: 1.42467 (Simulation time: 0 hr 26 min 49 sec) 

ChampSim completed all CPUs

Region of Interest Statistics

CPU 0 cumulative IPC: 1.42467 instructions: 50000000 cycles: 35095765
L1D TOTAL     ACCESS:   19140580  HIT:   17064602  MISS:    2075978
L1D LOAD      ACCESS:    6759957  HIT:    5704991  MISS:    1054966
L1D RFO       ACCESS:    6170072  HIT:    5883908  MISS:     286164
L1D PREFETCH  ACCESS:    6210551  HIT:    5475703  MISS:     734848
L1D WRITEBACK ACCESS:          0  HIT:          0  MISS:          0
L1D PREFETCH  REQUESTED:    6813800  ISSUED:    6679947  USEFUL:     179426  USELESS:     555515
L1D AVERAGE MISS LATENCY: 19.0154 cycles
L1I TOTAL     ACCESS:   16689647  HIT:   13330737  MISS:    3358910
L1I LOAD      ACCESS:    9824725  HIT:    9775118  MISS:      49607
L1I RFO       ACCESS:          0  HIT:          0  MISS:          0
L1I PREFETCH  ACCESS:    6864922  HIT:    3555619  MISS:    3309303
L1I WRITEBACK ACCESS:          0  HIT:          0  MISS:          0
L1I PREFETCH  REQUESTED:    7280433  ISSUED:    7198964  USEFUL:    2931977  USELESS:     377343
L1I AVERAGE MISS LATENCY: 19.3541 cycles
L2C TOTAL     ACCESS:    7720694  HIT:    6881327  MISS:     839367
L2C LOAD      ACCESS:     925585  HIT:     793939  MISS:     131646
L2C RFO       ACCESS:     283553  HIT:     219330  MISS:      64223
L2C PREFETCH  ACCESS:    5896012  HIT:    5255877  MISS:     640135
L2C WRITEBACK ACCESS:     615544  HIT:     612181  MISS:       3363
L2C PREFETCH  REQUESTED:    5859932  ISSUED:    5850192  USEFUL:      10169  USELESS:     629783
L2C AVERAGE MISS LATENCY: 33.9578 cycles
LLC TOTAL     ACCESS:    2356760  HIT:    2336674  MISS:      20086
LLC LOAD      ACCESS:     131396  HIT:     128573  MISS:       2823
LLC RFO       ACCESS:      64022  HIT:      62252  MISS:       1770
LLC PREFETCH  ACCESS:    2041570  HIT:    2026200  MISS:      15370
LLC WRITEBACK ACCESS:     119772  HIT:     119649  MISS:        123
LLC PREFETCH  REQUESTED:          0  ISSUED:          0  USEFUL:        853  USELESS:      14378
LLC AVERAGE MISS LATENCY: 145.372 cycles
Major fault: 0 Minor fault: 2046
CPU 0 L1D next line prefetcher final stats

DRAM Statistics
 CHANNEL 0
 RQ ROW_BUFFER_HIT:       6445  ROW_BUFFER_MISS:      13518
 DBUS_CONGESTED:       6332
 WQ ROW_BUFFER_HIT:        139  ROW_BUFFER_MISS:       2243  FULL:          0

 AVG_CONGESTED_CYCLE: 5

CPU 0 Branch Prediction Accuracy: 99.8445% MPKI: 0.29148 Average ROB Occupancy at Mispredict: 170.758

Branch types
NOT_BRANCH: 40628075 81.2562%
BRANCH_DIRECT_JUMP: 490941 0.981882%
BRANCH_INDIRECT: 175854 0.351708%
BRANCH_CONDITIONAL: 6321415 12.6428%
BRANCH_DIRECT_CALL: 1002072 2.00414%
BRANCH_INDIRECT_CALL: 189783 0.379566%
BRANCH_RETURN: 1191851 2.3837%
BRANCH_OTHER: 0 0%

