Initialize SIGNATURE TABLE
ST_SET: 1
ST_WAY: 256
ST_TAG_BIT: 16
ST_TAG_MASK: ffff

Initialize PATTERN TABLE
PT_SET: 512
PT_WAY: 4
SIG_DELTA_BIT: 7
C_SIG_BIT: 4
C_DELTA_BIT: 4

Initialize PREFETCH FILTER
FILTER_SET: 1024

*** ChampSim Multicore Out-of-Order Simulator ***

Warmup Instructions: 50000000
Simulation Instructions: 50000000
Number of CPUs: 1
LLC sets: 2048
LLC ways: 16
Off-chip DRAM Size: 4096 MB Channels: 1 Width: 64-bit Data Rate: 3200 MT/s

CPU 0 runs /home/ChampSim-master//dpc3_traces/server_010.champsimtrace.xz
L1I D-JOLT instruction prefetcher has been constructed!
CPU 0 L1D next line prefetcher
Heartbeat CPU 0 instructions: 10000000 cycles: 3194890 heartbeat IPC: 3.13 cumulative IPC: 3.13 (Simulation time: 0 hr 3 min 4 sec) 
Heartbeat CPU 0 instructions: 20000002 cycles: 6386326 heartbeat IPC: 3.13339 cumulative IPC: 3.13169 (Simulation time: 0 hr 6 min 28 sec) 
Heartbeat CPU 0 instructions: 30000001 cycles: 9581042 heartbeat IPC: 3.13017 cumulative IPC: 3.13118 (Simulation time: 0 hr 9 min 39 sec) 
Heartbeat CPU 0 instructions: 40000000 cycles: 12772249 heartbeat IPC: 3.13361 cumulative IPC: 3.13179 (Simulation time: 0 hr 12 min 40 sec) 
Heartbeat CPU 0 instructions: 50000003 cycles: 15968965 heartbeat IPC: 3.12821 cumulative IPC: 3.13107 (Simulation time: 0 hr 15 min 37 sec) 

Warmup complete CPU 0 instructions: 50000003 cycles: 15968965 (Simulation time: 0 hr 15 min 37 sec) 

Heartbeat CPU 0 instructions: 60000001 cycles: 23148873 heartbeat IPC: 1.39278 cumulative IPC: 1.39278 (Simulation time: 0 hr 18 min 31 sec) 
Heartbeat CPU 0 instructions: 70000000 cycles: 30364951 heartbeat IPC: 1.38579 cumulative IPC: 1.38928 (Simulation time: 0 hr 21 min 25 sec) 
Heartbeat CPU 0 instructions: 80000003 cycles: 37625428 heartbeat IPC: 1.37732 cumulative IPC: 1.38527 (Simulation time: 0 hr 23 min 48 sec) 
Heartbeat CPU 0 instructions: 90000002 cycles: 44659273 heartbeat IPC: 1.4217 cumulative IPC: 1.3942 (Simulation time: 0 hr 26 min 20 sec) 
Heartbeat CPU 0 instructions: 100000003 cycles: 65264920 heartbeat IPC: 0.485304 cumulative IPC: 1.01428 (Simulation time: 0 hr 28 min 54 sec) 
Finished CPU 0 instructions: 50000000 cycles: 49295955 cumulative IPC: 1.01428 (Simulation time: 0 hr 28 min 54 sec) 

ChampSim completed all CPUs

Region of Interest Statistics

CPU 0 cumulative IPC: 1.01428 instructions: 50000000 cycles: 49295955
L1D TOTAL     ACCESS:   19886821  HIT:   16661699  MISS:    3225122
L1D LOAD      ACCESS:    7699230  HIT:    6106114  MISS:    1593116
L1D RFO       ACCESS:    4713228  HIT:    4618922  MISS:      94306
L1D PREFETCH  ACCESS:    7474363  HIT:    5936663  MISS:    1537700
L1D WRITEBACK ACCESS:          0  HIT:          0  MISS:          0
L1D PREFETCH  REQUESTED:    7731861  ISSUED:    7635165  USEFUL:     117182  USELESS:    1420489
L1D AVERAGE MISS LATENCY: 22.7479 cycles
L1I TOTAL     ACCESS:   16810901  HIT:   15053457  MISS:    1757444
L1I LOAD      ACCESS:    9980059  HIT:    9913470  MISS:      66589
L1I RFO       ACCESS:          0  HIT:          0  MISS:          0
L1I PREFETCH  ACCESS:    6830842  HIT:    5139987  MISS:    1690855
L1I WRITEBACK ACCESS:          0  HIT:          0  MISS:          0
L1I PREFETCH  REQUESTED:    7542415  ISSUED:    7205650  USEFUL:    1211611  USELESS:     479203
L1I AVERAGE MISS LATENCY: 30.1971 cycles
L2C TOTAL     ACCESS:    6447155  HIT:    5302181  MISS:    1144974
L2C LOAD      ACCESS:    1607458  HIT:    1371190  MISS:     236268
L2C RFO       ACCESS:      93304  HIT:      48311  MISS:      44993
L2C PREFETCH  ACCESS:    4481063  HIT:    3618498  MISS:     862565
L2C WRITEBACK ACCESS:     265330  HIT:     264182  MISS:       1148
L2C PREFETCH  REQUESTED:    5783162  ISSUED:    5780361  USEFUL:      22378  USELESS:     841514
L2C AVERAGE MISS LATENCY: 45.4504 cycles
LLC TOTAL     ACCESS:    2383290  HIT:    2258379  MISS:     124911
LLC LOAD      ACCESS:     236182  HIT:     219378  MISS:      16804
LLC RFO       ACCESS:      44986  HIT:      35720  MISS:       9266
LLC PREFETCH  ACCESS:    1951065  HIT:    1852364  MISS:      98701
LLC WRITEBACK ACCESS:     151057  HIT:     150917  MISS:        140
LLC PREFETCH  REQUESTED:          0  ISSUED:          0  USEFUL:       9794  USELESS:      90072
LLC AVERAGE MISS LATENCY: 175.319 cycles
Major fault: 0 Minor fault: 5607
CPU 0 L1D next line prefetcher final stats

DRAM Statistics
 CHANNEL 0
 RQ ROW_BUFFER_HIT:      18828  ROW_BUFFER_MISS:     105922
 DBUS_CONGESTED:      55363
 WQ ROW_BUFFER_HIT:       9819  ROW_BUFFER_MISS:      43549  FULL:          0

 AVG_CONGESTED_CYCLE: 5

CPU 0 Branch Prediction Accuracy: 99.5528% MPKI: 0.89798 Average ROB Occupancy at Mispredict: 130.661

Branch types
NOT_BRANCH: 39958788 79.9176%
BRANCH_DIRECT_JUMP: 449946 0.899892%
BRANCH_INDIRECT: 140210 0.28042%
BRANCH_CONDITIONAL: 7679677 15.3594%
BRANCH_DIRECT_CALL: 701578 1.40316%
BRANCH_INDIRECT_CALL: 168971 0.337942%
BRANCH_RETURN: 900560 1.80112%
BRANCH_OTHER: 0 0%

