Initialize SIGNATURE TABLE
ST_SET: 1
ST_WAY: 256
ST_TAG_BIT: 16
ST_TAG_MASK: ffff

Initialize PATTERN TABLE
PT_SET: 512
PT_WAY: 4
SIG_DELTA_BIT: 7
C_SIG_BIT: 4
C_DELTA_BIT: 4

Initialize PREFETCH FILTER
FILTER_SET: 1024

*** ChampSim Multicore Out-of-Order Simulator ***

Warmup Instructions: 50000000
Simulation Instructions: 50000000
Number of CPUs: 1
LLC sets: 2048
LLC ways: 16
Off-chip DRAM Size: 4096 MB Channels: 1 Width: 64-bit Data Rate: 3200 MT/s

CPU 0 runs /home/ChampSim-master//dpc3_traces/server_033.champsimtrace.xz
L1I D-JOLT instruction prefetcher has been constructed!
CPU 0 L1D next line prefetcher
Heartbeat CPU 0 instructions: 10000001 cycles: 3342269 heartbeat IPC: 2.99198 cumulative IPC: 2.99198 (Simulation time: 0 hr 3 min 20 sec) 
Heartbeat CPU 0 instructions: 20000002 cycles: 6683044 heartbeat IPC: 2.99332 cumulative IPC: 2.99265 (Simulation time: 0 hr 6 min 15 sec) 
Heartbeat CPU 0 instructions: 30000001 cycles: 10013735 heartbeat IPC: 3.00238 cumulative IPC: 2.99589 (Simulation time: 0 hr 8 min 57 sec) 
Heartbeat CPU 0 instructions: 40000000 cycles: 13353779 heartbeat IPC: 2.99397 cumulative IPC: 2.99541 (Simulation time: 0 hr 11 min 41 sec) 
Heartbeat CPU 0 instructions: 50000000 cycles: 16692817 heartbeat IPC: 2.99487 cumulative IPC: 2.9953 (Simulation time: 0 hr 14 min 36 sec) 

Warmup complete CPU 0 instructions: 50000004 cycles: 16692818 (Simulation time: 0 hr 14 min 36 sec) 

Heartbeat CPU 0 instructions: 60000000 cycles: 23256214 heartbeat IPC: 1.5236 cumulative IPC: 1.5236 (Simulation time: 0 hr 17 min 15 sec) 
Heartbeat CPU 0 instructions: 70000000 cycles: 29767084 heartbeat IPC: 1.53589 cumulative IPC: 1.52972 (Simulation time: 0 hr 19 min 50 sec) 
Heartbeat CPU 0 instructions: 80000000 cycles: 37099871 heartbeat IPC: 1.36374 cumulative IPC: 1.47008 (Simulation time: 0 hr 22 min 25 sec) 
Heartbeat CPU 0 instructions: 90000003 cycles: 43716307 heartbeat IPC: 1.51139 cumulative IPC: 1.48019 (Simulation time: 0 hr 24 min 48 sec) 
Heartbeat CPU 0 instructions: 100000003 cycles: 50279044 heartbeat IPC: 1.52375 cumulative IPC: 1.48871 (Simulation time: 0 hr 26 min 10 sec) 
Finished CPU 0 instructions: 50000003 cycles: 33586227 cumulative IPC: 1.48871 (Simulation time: 0 hr 26 min 10 sec) 

ChampSim completed all CPUs

Region of Interest Statistics

CPU 0 cumulative IPC: 1.48871 instructions: 50000003 cycles: 33586227
L1D TOTAL     ACCESS:   18224097  HIT:   16741840  MISS:    1482257
L1D LOAD      ACCESS:    6138285  HIT:    5454402  MISS:     683883
L1D RFO       ACCESS:    6163612  HIT:    6014351  MISS:     149261
L1D PREFETCH  ACCESS:    5922200  HIT:    5273087  MISS:     649113
L1D WRITEBACK ACCESS:          0  HIT:          0  MISS:          0
L1D PREFETCH  REQUESTED:    6179721  ISSUED:    6059337  USEFUL:     140897  USELESS:     508222
L1D AVERAGE MISS LATENCY: 24.0986 cycles
L1I TOTAL     ACCESS:   20106640  HIT:   15926164  MISS:    4180476
L1I LOAD      ACCESS:    9686794  HIT:    9634951  MISS:      51843
L1I RFO       ACCESS:          0  HIT:          0  MISS:          0
L1I PREFETCH  ACCESS:   10419846  HIT:    6291213  MISS:    4128633
L1I WRITEBACK ACCESS:          0  HIT:          0  MISS:          0
L1I PREFETCH  REQUESTED:   11193043  ISSUED:   10995153  USEFUL:    3342318  USELESS:     786236
L1I AVERAGE MISS LATENCY: 15.5892 cycles
L2C TOTAL     ACCESS:    7829326  HIT:    7478702  MISS:     350624
L2C LOAD      ACCESS:     722989  HIT:     598792  MISS:     124197
L2C RFO       ACCESS:     147857  HIT:     127430  MISS:      20427
L2C PREFETCH  ACCESS:    6591989  HIT:    6389141  MISS:     202848
L2C WRITEBACK ACCESS:     366491  HIT:     363339  MISS:       3152
L2C PREFETCH  REQUESTED:    6055262  ISSUED:    6025792  USEFUL:       8827  USELESS:     193742
L2C AVERAGE MISS LATENCY: 48.0535 cycles
LLC TOTAL     ACCESS:    2347763  HIT:    2281454  MISS:      66309
LLC LOAD      ACCESS:     124157  HIT:     110083  MISS:      14074
LLC RFO       ACCESS:      20422  HIT:      17512  MISS:       2910
LLC PREFETCH  ACCESS:    2096163  HIT:    2047172  MISS:      48991
LLC WRITEBACK ACCESS:     107021  HIT:     106687  MISS:        334
LLC PREFETCH  REQUESTED:          0  ISSUED:          0  USEFUL:       7276  USELESS:      40245
LLC AVERAGE MISS LATENCY: 175.924 cycles
Major fault: 0 Minor fault: 2488
CPU 0 L1D next line prefetcher final stats

DRAM Statistics
 CHANNEL 0
 RQ ROW_BUFFER_HIT:      10381  ROW_BUFFER_MISS:      55590
 DBUS_CONGESTED:      26477
 WQ ROW_BUFFER_HIT:       3985  ROW_BUFFER_MISS:      17881  FULL:          0

 AVG_CONGESTED_CYCLE: 5

CPU 0 Branch Prediction Accuracy: 99.9029% MPKI: 0.19006 Average ROB Occupancy at Mispredict: 256.048

Branch types
NOT_BRANCH: 40217170 80.4343%
BRANCH_DIRECT_JUMP: 774600 1.5492%
BRANCH_INDIRECT: 108806 0.217612%
BRANCH_CONDITIONAL: 6379337 12.7587%
BRANCH_DIRECT_CALL: 1048811 2.09762%
BRANCH_INDIRECT_CALL: 211109 0.422218%
BRANCH_RETURN: 1259926 2.51985%
BRANCH_OTHER: 0 0%

