Initialize SIGNATURE TABLE
ST_SET: 1
ST_WAY: 256
ST_TAG_BIT: 16
ST_TAG_MASK: ffff

Initialize PATTERN TABLE
PT_SET: 512
PT_WAY: 4
SIG_DELTA_BIT: 7
C_SIG_BIT: 4
C_DELTA_BIT: 4

Initialize PREFETCH FILTER
FILTER_SET: 1024

*** ChampSim Multicore Out-of-Order Simulator ***

Warmup Instructions: 50000000
Simulation Instructions: 50000000
Number of CPUs: 1
LLC sets: 2048
LLC ways: 16
Off-chip DRAM Size: 4096 MB Channels: 1 Width: 64-bit Data Rate: 3200 MT/s

CPU 0 runs /home/ChampSim-master//dpc3_traces/server_025.champsimtrace.xz
L1I D-JOLT instruction prefetcher has been constructed!
CPU 0 L1D next line prefetcher
Heartbeat CPU 0 instructions: 10000003 cycles: 3524105 heartbeat IPC: 2.8376 cumulative IPC: 2.8376 (Simulation time: 0 hr 3 min 6 sec) 
Heartbeat CPU 0 instructions: 20000000 cycles: 7055736 heartbeat IPC: 2.83155 cumulative IPC: 2.83457 (Simulation time: 0 hr 5 min 52 sec) 
Heartbeat CPU 0 instructions: 30000001 cycles: 10579002 heartbeat IPC: 2.83828 cumulative IPC: 2.83581 (Simulation time: 0 hr 8 min 41 sec) 
Heartbeat CPU 0 instructions: 40000003 cycles: 14108191 heartbeat IPC: 2.83351 cumulative IPC: 2.83523 (Simulation time: 0 hr 11 min 22 sec) 
Heartbeat CPU 0 instructions: 50000001 cycles: 17634470 heartbeat IPC: 2.83585 cumulative IPC: 2.83536 (Simulation time: 0 hr 14 min 0 sec) 

Warmup complete CPU 0 instructions: 50000001 cycles: 17634470 (Simulation time: 0 hr 14 min 0 sec) 

Heartbeat CPU 0 instructions: 60000002 cycles: 24406704 heartbeat IPC: 1.47662 cumulative IPC: 1.47662 (Simulation time: 0 hr 16 min 25 sec) 
Heartbeat CPU 0 instructions: 70000000 cycles: 31297430 heartbeat IPC: 1.45123 cumulative IPC: 1.46381 (Simulation time: 0 hr 18 min 50 sec) 
Heartbeat CPU 0 instructions: 80000002 cycles: 38095583 heartbeat IPC: 1.47099 cumulative IPC: 1.4662 (Simulation time: 0 hr 21 min 11 sec) 
Heartbeat CPU 0 instructions: 90000001 cycles: 44571472 heartbeat IPC: 1.54419 cumulative IPC: 1.48495 (Simulation time: 0 hr 23 min 16 sec) 
Heartbeat CPU 0 instructions: 100000003 cycles: 50782498 heartbeat IPC: 1.61004 cumulative IPC: 1.50839 (Simulation time: 0 hr 24 min 29 sec) 
Finished CPU 0 instructions: 50000002 cycles: 33148028 cumulative IPC: 1.50839 (Simulation time: 0 hr 24 min 29 sec) 

ChampSim completed all CPUs

Region of Interest Statistics

CPU 0 cumulative IPC: 1.50839 instructions: 50000002 cycles: 33148028
L1D TOTAL     ACCESS:   19970402  HIT:   18545031  MISS:    1425371
L1D LOAD      ACCESS:    6950764  HIT:    6332063  MISS:     618701
L1D RFO       ACCESS:    6379720  HIT:    6131576  MISS:     248144
L1D PREFETCH  ACCESS:    6639918  HIT:    6081392  MISS:     558526
L1D WRITEBACK ACCESS:          0  HIT:          0  MISS:          0
L1D PREFETCH  REQUESTED:    6991069  ISSUED:    6815750  USEFUL:     131267  USELESS:     427253
L1D AVERAGE MISS LATENCY: 23.0583 cycles
L1I TOTAL     ACCESS:   14266942  HIT:   11508960  MISS:    2757982
L1I LOAD      ACCESS:    9500564  HIT:    9461592  MISS:      38972
L1I RFO       ACCESS:          0  HIT:          0  MISS:          0
L1I PREFETCH  ACCESS:    4766378  HIT:    2047368  MISS:    2719010
L1I WRITEBACK ACCESS:          0  HIT:          0  MISS:          0
L1I PREFETCH  REQUESTED:    4974286  ISSUED:    4945461  USEFUL:    2426392  USELESS:     292642
L1I AVERAGE MISS LATENCY: 19.5563 cycles
L2C TOTAL     ACCESS:    5841592  HIT:    5135950  MISS:     705642
L2C LOAD      ACCESS:     622722  HIT:     509945  MISS:     112777
L2C RFO       ACCESS:     246684  HIT:     174269  MISS:      72415
L2C PREFETCH  ACCESS:    4475433  HIT:    3957626  MISS:     517807
L2C WRITEBACK ACCESS:     496753  HIT:     494110  MISS:       2643
L2C PREFETCH  REQUESTED:    3754939  ISSUED:    3748917  USEFUL:      10203  USELESS:     507577
L2C AVERAGE MISS LATENCY: 37.4527 cycles
LLC TOTAL     ACCESS:    1890419  HIT:    1857878  MISS:      32541
LLC LOAD      ACCESS:     112698  HIT:     109179  MISS:       3519
LLC RFO       ACCESS:      72359  HIT:      61538  MISS:      10821
LLC PREFETCH  ACCESS:    1578596  HIT:    1560636  MISS:      17960
LLC WRITEBACK ACCESS:     126766  HIT:     126525  MISS:        241
LLC PREFETCH  REQUESTED:          0  ISSUED:          0  USEFUL:       1237  USELESS:      16197
LLC AVERAGE MISS LATENCY: 176.454 cycles
Major fault: 0 Minor fault: 2464
CPU 0 L1D next line prefetcher final stats

DRAM Statistics
 CHANNEL 0
 RQ ROW_BUFFER_HIT:       9848  ROW_BUFFER_MISS:      22450
 DBUS_CONGESTED:      18674
 WQ ROW_BUFFER_HIT:       1356  ROW_BUFFER_MISS:      11889  FULL:          0

 AVG_CONGESTED_CYCLE: 6

CPU 0 Branch Prediction Accuracy: 99.8142% MPKI: 0.34676 Average ROB Occupancy at Mispredict: 204.656

Branch types
NOT_BRANCH: 40668924 81.3378%
BRANCH_DIRECT_JUMP: 531701 1.0634%
BRANCH_INDIRECT: 199025 0.39805%
BRANCH_CONDITIONAL: 6211500 12.423%
BRANCH_DIRECT_CALL: 1010912 2.02182%
BRANCH_INDIRECT_CALL: 183501 0.367002%
BRANCH_RETURN: 1194416 2.38883%
BRANCH_OTHER: 0 0%

