Initialize SIGNATURE TABLE
ST_SET: 1
ST_WAY: 256
ST_TAG_BIT: 16
ST_TAG_MASK: ffff

Initialize PATTERN TABLE
PT_SET: 512
PT_WAY: 4
SIG_DELTA_BIT: 7
C_SIG_BIT: 4
C_DELTA_BIT: 4

Initialize PREFETCH FILTER
FILTER_SET: 1024

*** ChampSim Multicore Out-of-Order Simulator ***

Warmup Instructions: 50000000
Simulation Instructions: 50000000
Number of CPUs: 1
LLC sets: 2048
LLC ways: 16
Off-chip DRAM Size: 4096 MB Channels: 1 Width: 64-bit Data Rate: 3200 MT/s

CPU 0 runs /home/ChampSim-master//dpc3_traces/server_035.champsimtrace.xz
L1I D-JOLT instruction prefetcher has been constructed!
CPU 0 L1D next line prefetcher
Heartbeat CPU 0 instructions: 10000001 cycles: 3338465 heartbeat IPC: 2.99539 cumulative IPC: 2.99539 (Simulation time: 0 hr 3 min 7 sec) 
Heartbeat CPU 0 instructions: 20000000 cycles: 6676445 heartbeat IPC: 2.99582 cumulative IPC: 2.99561 (Simulation time: 0 hr 6 min 1 sec) 
Heartbeat CPU 0 instructions: 30000000 cycles: 10011944 heartbeat IPC: 2.99805 cumulative IPC: 2.99642 (Simulation time: 0 hr 8 min 40 sec) 
Heartbeat CPU 0 instructions: 40000000 cycles: 13351731 heartbeat IPC: 2.9942 cumulative IPC: 2.99587 (Simulation time: 0 hr 11 min 48 sec) 
Heartbeat CPU 0 instructions: 50000003 cycles: 16689152 heartbeat IPC: 2.99633 cumulative IPC: 2.99596 (Simulation time: 0 hr 15 min 1 sec) 

Warmup complete CPU 0 instructions: 50000003 cycles: 16689152 (Simulation time: 0 hr 15 min 1 sec) 

Heartbeat CPU 0 instructions: 60000001 cycles: 25229879 heartbeat IPC: 1.17086 cumulative IPC: 1.17086 (Simulation time: 0 hr 18 min 8 sec) 
Heartbeat CPU 0 instructions: 70000003 cycles: 33417273 heartbeat IPC: 1.22139 cumulative IPC: 1.19559 (Simulation time: 0 hr 21 min 11 sec) 
Heartbeat CPU 0 instructions: 80000001 cycles: 41757627 heartbeat IPC: 1.19899 cumulative IPC: 1.19672 (Simulation time: 0 hr 24 min 7 sec) 
Heartbeat CPU 0 instructions: 90000002 cycles: 49450464 heartbeat IPC: 1.29991 cumulative IPC: 1.22095 (Simulation time: 0 hr 26 min 35 sec) 
Heartbeat CPU 0 instructions: 100000002 cycles: 57795670 heartbeat IPC: 1.19829 cumulative IPC: 1.21635 (Simulation time: 0 hr 27 min 46 sec) 
Finished CPU 0 instructions: 50000003 cycles: 41106519 cumulative IPC: 1.21635 (Simulation time: 0 hr 27 min 46 sec) 

ChampSim completed all CPUs

Region of Interest Statistics

CPU 0 cumulative IPC: 1.21635 instructions: 50000003 cycles: 41106519
L1D TOTAL     ACCESS:   18199691  HIT:   16695441  MISS:    1504250
L1D LOAD      ACCESS:    6129074  HIT:    5427322  MISS:     701752
L1D RFO       ACCESS:    6154622  HIT:    6002306  MISS:     152316
L1D PREFETCH  ACCESS:    5915995  HIT:    5265813  MISS:     650182
L1D WRITEBACK ACCESS:          0  HIT:          0  MISS:          0
L1D PREFETCH  REQUESTED:    6173083  ISSUED:    6072694  USEFUL:     138458  USELESS:     511729
L1D AVERAGE MISS LATENCY: 44.3101 cycles
L1I TOTAL     ACCESS:   19558197  HIT:   15554362  MISS:    4003835
L1I LOAD      ACCESS:    9707180  HIT:    9667797  MISS:      39383
L1I RFO       ACCESS:          0  HIT:          0  MISS:          0
L1I PREFETCH  ACCESS:    9851017  HIT:    5886565  MISS:    3964452
L1I WRITEBACK ACCESS:          0  HIT:          0  MISS:          0
L1I PREFETCH  REQUESTED:   10704787  ISSUED:   10455878  USEFUL:    3359770  USELESS:     604651
L1I AVERAGE MISS LATENCY: 16.1478 cycles
L2C TOTAL     ACCESS:    7373250  HIT:    7027877  MISS:     345373
L2C LOAD      ACCESS:     725755  HIT:     596772  MISS:     128983
L2C RFO       ACCESS:     150408  HIT:     129507  MISS:      20901
L2C PREFETCH  ACCESS:    6131921  HIT:    5938498  MISS:     193423
L2C WRITEBACK ACCESS:     365166  HIT:     363100  MISS:       2066
L2C PREFETCH  REQUESTED:    5764549  ISSUED:    5750501  USEFUL:      13163  USELESS:     180231
L2C AVERAGE MISS LATENCY: 146.148 cycles
LLC TOTAL     ACCESS:    2059193  HIT:    1774177  MISS:     285016
LLC LOAD      ACCESS:     128588  HIT:      43322  MISS:      85266
LLC RFO       ACCESS:      20888  HIT:       9940  MISS:      10948
LLC PREFETCH  ACCESS:    1806208  HIT:    1618432  MISS:     187776
LLC WRITEBACK ACCESS:     103509  HIT:     102483  MISS:       1026
LLC PREFETCH  REQUESTED:          0  ISSUED:          0  USEFUL:      29012  USELESS:     157699
LLC AVERAGE MISS LATENCY: 218.333 cycles
Major fault: 0 Minor fault: 5550
CPU 0 L1D next line prefetcher final stats

DRAM Statistics
 CHANNEL 0
 RQ ROW_BUFFER_HIT:      72227  ROW_BUFFER_MISS:     211751
 DBUS_CONGESTED:     162137
 WQ ROW_BUFFER_HIT:      19183  ROW_BUFFER_MISS:      71632  FULL:          0

 AVG_CONGESTED_CYCLE: 5

CPU 0 Branch Prediction Accuracy: 99.9115% MPKI: 0.17232 Average ROB Occupancy at Mispredict: 219.161

Branch types
NOT_BRANCH: 40267411 80.5348%
BRANCH_DIRECT_JUMP: 771900 1.5438%
BRANCH_INDIRECT: 108179 0.216358%
BRANCH_CONDITIONAL: 6307187 12.6144%
BRANCH_DIRECT_CALL: 1060898 2.1218%
BRANCH_INDIRECT_CALL: 211720 0.42344%
BRANCH_RETURN: 1272639 2.54528%
BRANCH_OTHER: 0 0%

