Initialize SIGNATURE TABLE
ST_SET: 1
ST_WAY: 256
ST_TAG_BIT: 16
ST_TAG_MASK: ffff

Initialize PATTERN TABLE
PT_SET: 512
PT_WAY: 4
SIG_DELTA_BIT: 7
C_SIG_BIT: 4
C_DELTA_BIT: 4

Initialize PREFETCH FILTER
FILTER_SET: 1024

*** ChampSim Multicore Out-of-Order Simulator ***

Warmup Instructions: 50000000
Simulation Instructions: 50000000
Number of CPUs: 1
LLC sets: 2048
LLC ways: 16
Off-chip DRAM Size: 4096 MB Channels: 1 Width: 64-bit Data Rate: 3200 MT/s

CPU 0 runs /home/ChampSim-master//dpc3_traces/server_029.champsimtrace.xz
L1I D-JOLT instruction prefetcher has been constructed!
CPU 0 L1D next line prefetcher
Heartbeat CPU 0 instructions: 10000003 cycles: 3494805 heartbeat IPC: 2.86139 cumulative IPC: 2.86139 (Simulation time: 0 hr 3 min 22 sec) 
Heartbeat CPU 0 instructions: 20000002 cycles: 6989204 heartbeat IPC: 2.86172 cumulative IPC: 2.86156 (Simulation time: 0 hr 6 min 42 sec) 
Heartbeat CPU 0 instructions: 30000003 cycles: 10484230 heartbeat IPC: 2.86121 cumulative IPC: 2.86144 (Simulation time: 0 hr 9 min 44 sec) 
Heartbeat CPU 0 instructions: 40000000 cycles: 13986204 heartbeat IPC: 2.85553 cumulative IPC: 2.85996 (Simulation time: 0 hr 12 min 42 sec) 
Heartbeat CPU 0 instructions: 50000000 cycles: 17486249 heartbeat IPC: 2.85711 cumulative IPC: 2.85939 (Simulation time: 0 hr 15 min 33 sec) 

Warmup complete CPU 0 instructions: 50000004 cycles: 17486250 (Simulation time: 0 hr 15 min 33 sec) 

Heartbeat CPU 0 instructions: 60000000 cycles: 25031738 heartbeat IPC: 1.3253 cumulative IPC: 1.32529 (Simulation time: 0 hr 18 min 29 sec) 
Heartbeat CPU 0 instructions: 70000003 cycles: 32723934 heartbeat IPC: 1.30002 cumulative IPC: 1.31254 (Simulation time: 0 hr 21 min 21 sec) 
Heartbeat CPU 0 instructions: 80000001 cycles: 40244115 heartbeat IPC: 1.32975 cumulative IPC: 1.31823 (Simulation time: 0 hr 23 min 57 sec) 
*** Reached end of trace for Core: 0 Repeating trace: /home/ChampSim-master//dpc3_traces/server_029.champsimtrace.xz
Heartbeat CPU 0 instructions: 90000000 cycles: 47699528 heartbeat IPC: 1.34131 cumulative IPC: 1.32392 (Simulation time: 0 hr 25 min 51 sec) 
Heartbeat CPU 0 instructions: 100000003 cycles: 55136191 heartbeat IPC: 1.34469 cumulative IPC: 1.32802 (Simulation time: 0 hr 26 min 47 sec) 
Finished CPU 0 instructions: 50000003 cycles: 37649942 cumulative IPC: 1.32802 (Simulation time: 0 hr 26 min 47 sec) 

ChampSim completed all CPUs

Region of Interest Statistics

CPU 0 cumulative IPC: 1.32802 instructions: 50000003 cycles: 37649942
L1D TOTAL     ACCESS:   19037335  HIT:   16940662  MISS:    2096673
L1D LOAD      ACCESS:    6722252  HIT:    5656996  MISS:    1065256
L1D RFO       ACCESS:    6110975  HIT:    5825153  MISS:     285822
L1D PREFETCH  ACCESS:    6204108  HIT:    5458513  MISS:     745595
L1D WRITEBACK ACCESS:          0  HIT:          0  MISS:          0
L1D PREFETCH  REQUESTED:    6783533  ISSUED:    6673182  USEFUL:     175276  USELESS:     570308
L1D AVERAGE MISS LATENCY: 22.0681 cycles
L1I TOTAL     ACCESS:   16855485  HIT:   13570251  MISS:    3285234
L1I LOAD      ACCESS:    9808886  HIT:    9775509  MISS:      33377
L1I RFO       ACCESS:          0  HIT:          0  MISS:          0
L1I PREFETCH  ACCESS:    7046599  HIT:    3794742  MISS:    3251857
L1I WRITEBACK ACCESS:          0  HIT:          0  MISS:          0
L1I PREFETCH  REQUESTED:    7511631  ISSUED:    7439476  USEFUL:    2906536  USELESS:     345335
L1I AVERAGE MISS LATENCY: 18.9927 cycles
L2C TOTAL     ACCESS:    7604177  HIT:    6792612  MISS:     811565
L2C LOAD      ACCESS:     946227  HIT:     775758  MISS:     170469
L2C RFO       ACCESS:     283772  HIT:     216644  MISS:      67128
L2C PREFETCH  ACCESS:    5763480  HIT:    5192029  MISS:     571451
L2C WRITEBACK ACCESS:     610698  HIT:     608181  MISS:       2517
L2C PREFETCH  REQUESTED:    5451649  ISSUED:    5439152  USEFUL:       9296  USELESS:     561638
L2C AVERAGE MISS LATENCY: 40.4337 cycles
LLC TOTAL     ACCESS:    2546696  HIT:    2469620  MISS:      77076
LLC LOAD      ACCESS:     170203  HIT:     152937  MISS:      17266
LLC RFO       ACCESS:      67126  HIT:      63483  MISS:       3643
LLC PREFETCH  ACCESS:    2187363  HIT:    2131796  MISS:      55567
LLC WRITEBACK ACCESS:     122004  HIT:     121404  MISS:        600
LLC PREFETCH  REQUESTED:          0  ISSUED:          0  USEFUL:       2460  USELESS:      53290
LLC AVERAGE MISS LATENCY: 158.489 cycles
Major fault: 0 Minor fault: 5924
CPU 0 L1D next line prefetcher final stats

DRAM Statistics
 CHANNEL 0
 RQ ROW_BUFFER_HIT:      22354  ROW_BUFFER_MISS:      54111
 DBUS_CONGESTED:      29732
 WQ ROW_BUFFER_HIT:        552  ROW_BUFFER_MISS:       4164  FULL:          0

 AVG_CONGESTED_CYCLE: 4

CPU 0 Branch Prediction Accuracy: 99.7245% MPKI: 0.51862 Average ROB Occupancy at Mispredict: 147.293

Branch types
NOT_BRANCH: 40586670 81.1733%
BRANCH_DIRECT_JUMP: 525212 1.05042%
BRANCH_INDIRECT: 166360 0.33272%
BRANCH_CONDITIONAL: 6373105 12.7462%
BRANCH_DIRECT_CALL: 989264 1.97853%
BRANCH_INDIRECT_CALL: 184984 0.369968%
BRANCH_RETURN: 1174251 2.3485%
BRANCH_OTHER: 0 0%

