Initialize SIGNATURE TABLE
ST_SET: 1
ST_WAY: 256
ST_TAG_BIT: 16
ST_TAG_MASK: ffff

Initialize PATTERN TABLE
PT_SET: 512
PT_WAY: 4
SIG_DELTA_BIT: 7
C_SIG_BIT: 4
C_DELTA_BIT: 4

Initialize PREFETCH FILTER
FILTER_SET: 1024

*** ChampSim Multicore Out-of-Order Simulator ***

Warmup Instructions: 50000000
Simulation Instructions: 50000000
Number of CPUs: 1
LLC sets: 2048
LLC ways: 16
Off-chip DRAM Size: 4096 MB Channels: 1 Width: 64-bit Data Rate: 3200 MT/s

CPU 0 runs /home/ChampSim-master//dpc3_traces/server_021.champsimtrace.xz
L1I D-JOLT instruction prefetcher has been constructed!
CPU 0 L1D next line prefetcher
Heartbeat CPU 0 instructions: 10000000 cycles: 3623018 heartbeat IPC: 2.76013 cumulative IPC: 2.76013 (Simulation time: 0 hr 3 min 20 sec) 
Heartbeat CPU 0 instructions: 20000000 cycles: 7240421 heartbeat IPC: 2.76441 cumulative IPC: 2.76227 (Simulation time: 0 hr 6 min 59 sec) 
Heartbeat CPU 0 instructions: 30000003 cycles: 10888814 heartbeat IPC: 2.74093 cumulative IPC: 2.75512 (Simulation time: 0 hr 10 min 11 sec) 
Heartbeat CPU 0 instructions: 40000001 cycles: 14501875 heartbeat IPC: 2.76774 cumulative IPC: 2.75826 (Simulation time: 0 hr 13 min 15 sec) 
Heartbeat CPU 0 instructions: 50000002 cycles: 18137098 heartbeat IPC: 2.75086 cumulative IPC: 2.75678 (Simulation time: 0 hr 16 min 12 sec) 

Warmup complete CPU 0 instructions: 50000002 cycles: 18137098 (Simulation time: 0 hr 16 min 12 sec) 

Heartbeat CPU 0 instructions: 60000001 cycles: 34894653 heartbeat IPC: 0.596746 cumulative IPC: 0.596746 (Simulation time: 0 hr 20 min 9 sec) 
Heartbeat CPU 0 instructions: 70000002 cycles: 51891848 heartbeat IPC: 0.588332 cumulative IPC: 0.592509 (Simulation time: 0 hr 23 min 38 sec) 
Heartbeat CPU 0 instructions: 80000001 cycles: 68730138 heartbeat IPC: 0.593884 cumulative IPC: 0.592967 (Simulation time: 0 hr 26 min 13 sec) 
Heartbeat CPU 0 instructions: 90000001 cycles: 85872141 heartbeat IPC: 0.583362 cumulative IPC: 0.590536 (Simulation time: 0 hr 27 min 7 sec) 
Heartbeat CPU 0 instructions: 100000002 cycles: 102792151 heartbeat IPC: 0.591016 cumulative IPC: 0.590632 (Simulation time: 0 hr 27 min 38 sec) 
Finished CPU 0 instructions: 50000000 cycles: 84655053 cumulative IPC: 0.590632 (Simulation time: 0 hr 27 min 38 sec) 

ChampSim completed all CPUs

Region of Interest Statistics

CPU 0 cumulative IPC: 0.590632 instructions: 50000000 cycles: 84655053
L1D TOTAL     ACCESS:   18704182  HIT:   16500663  MISS:    2203519
L1D LOAD      ACCESS:    7058999  HIT:    6353845  MISS:     705154
L1D RFO       ACCESS:    5878722  HIT:    4903126  MISS:     975596
L1D PREFETCH  ACCESS:    5766461  HIT:    5243692  MISS:     522769
L1D WRITEBACK ACCESS:          0  HIT:          0  MISS:          0
L1D PREFETCH  REQUESTED:    7101627  ISSUED:    6896423  USEFUL:     201463  USELESS:     321301
L1D AVERAGE MISS LATENCY: 181.1 cycles
L1I TOTAL     ACCESS:   18728995  HIT:   15271321  MISS:    3457674
L1I LOAD      ACCESS:   10140415  HIT:   10095701  MISS:      44714
L1I RFO       ACCESS:          0  HIT:          0  MISS:          0
L1I PREFETCH  ACCESS:    8588580  HIT:    5175620  MISS:    3412960
L1I WRITEBACK ACCESS:          0  HIT:          0  MISS:          0
L1I PREFETCH  REQUESTED:    9329672  ISSUED:    9190975  USEFUL:    2711925  USELESS:     700990
L1I AVERAGE MISS LATENCY: 17.402 cycles
L2C TOTAL     ACCESS:    8287532  HIT:    6422122  MISS:    1865410
L2C LOAD      ACCESS:     508919  HIT:     259826  MISS:     249093
L2C RFO       ACCESS:     974993  HIT:      20363  MISS:     954630
L2C PREFETCH  ACCESS:    5623702  HIT:    4964656  MISS:     659046
L2C WRITEBACK ACCESS:    1179918  HIT:    1177277  MISS:       2641
L2C PREFETCH  REQUESTED:    4866109  ISSUED:    4862725  USEFUL:      19483  USELESS:     639518
L2C AVERAGE MISS LATENCY: 220.009 cycles
LLC TOTAL     ACCESS:    4183380  HIT:    2782298  MISS:    1401082
LLC LOAD      ACCESS:     249043  HIT:     172037  MISS:      77006
LLC RFO       ACCESS:     954630  HIT:     143057  MISS:     811573
LLC PREFETCH  ACCESS:    1865568  HIT:    1355268  MISS:     510300
LLC WRITEBACK ACCESS:    1114139  HIT:    1111936  MISS:       2203
LLC PREFETCH  REQUESTED:          0  ISSUED:          0  USEFUL:      27370  USELESS:     481435
LLC AVERAGE MISS LATENCY: 294.44 cycles
Major fault: 0 Minor fault: 22292
CPU 0 L1D next line prefetcher final stats

DRAM Statistics
 CHANNEL 0
 RQ ROW_BUFFER_HIT:     401813  ROW_BUFFER_MISS:     996834
 DBUS_CONGESTED:    1442055
 WQ ROW_BUFFER_HIT:     266551  ROW_BUFFER_MISS:     631929  FULL:          0

 AVG_CONGESTED_CYCLE: 6

CPU 0 Branch Prediction Accuracy: 99.8303% MPKI: 0.27836 Average ROB Occupancy at Mispredict: 226.206

Branch types
NOT_BRANCH: 41798548 83.5971%
BRANCH_DIRECT_JUMP: 445215 0.89043%
BRANCH_INDIRECT: 50481 0.100962%
BRANCH_CONDITIONAL: 5868246 11.7365%
BRANCH_DIRECT_CALL: 758228 1.51646%
BRANCH_INDIRECT_CALL: 160494 0.320988%
BRANCH_RETURN: 918718 1.83744%
BRANCH_OTHER: 0 0%

