Initialize SIGNATURE TABLE
ST_SET: 1
ST_WAY: 256
ST_TAG_BIT: 16
ST_TAG_MASK: ffff

Initialize PATTERN TABLE
PT_SET: 512
PT_WAY: 4
SIG_DELTA_BIT: 7
C_SIG_BIT: 4
C_DELTA_BIT: 4

Initialize PREFETCH FILTER
FILTER_SET: 1024

*** ChampSim Multicore Out-of-Order Simulator ***

Warmup Instructions: 50000000
Simulation Instructions: 50000000
Number of CPUs: 1
LLC sets: 2048
LLC ways: 16
Off-chip DRAM Size: 4096 MB Channels: 1 Width: 64-bit Data Rate: 3200 MT/s

CPU 0 runs /home/ChampSim-master//dpc3_traces/server_009.champsimtrace.xz
L1I D-JOLT instruction prefetcher has been constructed!
CPU 0 L1D next line prefetcher
Heartbeat CPU 0 instructions: 10000003 cycles: 3196764 heartbeat IPC: 3.12816 cumulative IPC: 3.12816 (Simulation time: 0 hr 3 min 9 sec) 
Heartbeat CPU 0 instructions: 20000001 cycles: 6386637 heartbeat IPC: 3.13492 cumulative IPC: 3.13154 (Simulation time: 0 hr 6 min 12 sec) 
Heartbeat CPU 0 instructions: 30000002 cycles: 9591569 heartbeat IPC: 3.12019 cumulative IPC: 3.12775 (Simulation time: 0 hr 9 min 2 sec) 
Heartbeat CPU 0 instructions: 40000003 cycles: 12792520 heartbeat IPC: 3.12407 cumulative IPC: 3.12683 (Simulation time: 0 hr 12 min 3 sec) 
Heartbeat CPU 0 instructions: 50000000 cycles: 16049797 heartbeat IPC: 3.07005 cumulative IPC: 3.1153 (Simulation time: 0 hr 14 min 45 sec) 

Warmup complete CPU 0 instructions: 50000004 cycles: 16049798 (Simulation time: 0 hr 14 min 45 sec) 

Heartbeat CPU 0 instructions: 60000002 cycles: 31710845 heartbeat IPC: 0.638527 cumulative IPC: 0.638527 (Simulation time: 0 hr 18 min 39 sec) 
Heartbeat CPU 0 instructions: 70000003 cycles: 52768492 heartbeat IPC: 0.474887 cumulative IPC: 0.544682 (Simulation time: 0 hr 23 min 6 sec) 
Heartbeat CPU 0 instructions: 80000000 cycles: 59925753 heartbeat IPC: 1.39718 cumulative IPC: 0.683746 (Simulation time: 0 hr 25 min 31 sec) 
Heartbeat CPU 0 instructions: 90000001 cycles: 67204841 heartbeat IPC: 1.3738 cumulative IPC: 0.781937 (Simulation time: 0 hr 27 min 33 sec) 
Heartbeat CPU 0 instructions: 100000003 cycles: 74371489 heartbeat IPC: 1.39535 cumulative IPC: 0.857314 (Simulation time: 0 hr 28 min 53 sec) 
Finished CPU 0 instructions: 50000003 cycles: 58321692 cumulative IPC: 0.857314 (Simulation time: 0 hr 28 min 53 sec) 

ChampSim completed all CPUs

Region of Interest Statistics

CPU 0 cumulative IPC: 0.857314 instructions: 50000003 cycles: 58321692
L1D TOTAL     ACCESS:   21608880  HIT:   17029347  MISS:    4579533
L1D LOAD      ACCESS:    8620524  HIT:    6340273  MISS:    2280251
L1D RFO       ACCESS:    4581365  HIT:    4476939  MISS:     104426
L1D PREFETCH  ACCESS:    8406991  HIT:    6212135  MISS:    2194856
L1D WRITEBACK ACCESS:          0  HIT:          0  MISS:          0
L1D PREFETCH  REQUESTED:    8652839  ISSUED:    8555737  USEFUL:     106394  USELESS:    2088461
L1D AVERAGE MISS LATENCY: 20.4333 cycles
L1I TOTAL     ACCESS:   17032586  HIT:   15498613  MISS:    1533973
L1I LOAD      ACCESS:   10774924  HIT:   10708413  MISS:      66511
L1I RFO       ACCESS:          0  HIT:          0  MISS:          0
L1I PREFETCH  ACCESS:    6257662  HIT:    4790200  MISS:    1467462
L1I WRITEBACK ACCESS:          0  HIT:          0  MISS:          0
L1I PREFETCH  REQUESTED:    6837093  ISSUED:    6545378  USEFUL:    1076823  USELESS:     390664
L1I AVERAGE MISS LATENCY: 31.4098 cycles
L2C TOTAL     ACCESS:    7883120  HIT:    6830198  MISS:    1052922
L2C LOAD      ACCESS:    2297781  HIT:    2076398  MISS:     221383
L2C RFO       ACCESS:     103465  HIT:      63048  MISS:      40417
L2C PREFETCH  ACCESS:    5225020  HIT:    4435198  MISS:     789822
L2C WRITEBACK ACCESS:     256854  HIT:     255554  MISS:       1300
L2C PREFETCH  REQUESTED:    6285137  ISSUED:    6282264  USEFUL:      21611  USELESS:     767060
L2C AVERAGE MISS LATENCY: 47.4272 cycles
LLC TOTAL     ACCESS:    2303822  HIT:    2165144  MISS:     138678
LLC LOAD      ACCESS:     221153  HIT:     200444  MISS:      20709
LLC RFO       ACCESS:      40413  HIT:      31631  MISS:       8782
LLC PREFETCH  ACCESS:    1905398  HIT:    1796419  MISS:     108979
LLC WRITEBACK ACCESS:     136858  HIT:     136650  MISS:        208
LLC PREFETCH  REQUESTED:          0  ISSUED:          0  USEFUL:      11648  USELESS:      95817
LLC AVERAGE MISS LATENCY: 174 cycles
Major fault: 0 Minor fault: 6363
CPU 0 L1D next line prefetcher final stats

DRAM Statistics
 CHANNEL 0
 RQ ROW_BUFFER_HIT:      25914  ROW_BUFFER_MISS:     112547
 DBUS_CONGESTED:      58506
 WQ ROW_BUFFER_HIT:       9054  ROW_BUFFER_MISS:      37845  FULL:          0

 AVG_CONGESTED_CYCLE: 5

CPU 0 Branch Prediction Accuracy: 99.4713% MPKI: 1.11484 Average ROB Occupancy at Mispredict: 119.971

Branch types
NOT_BRANCH: 39456615 78.9132%
BRANCH_DIRECT_JUMP: 445350 0.8907%
BRANCH_INDIRECT: 131149 0.262298%
BRANCH_CONDITIONAL: 8130196 16.2604%
BRANCH_DIRECT_CALL: 732485 1.46497%
BRANCH_INDIRECT_CALL: 172369 0.344738%
BRANCH_RETURN: 931558 1.86312%
BRANCH_OTHER: 0 0%

