Initialize SIGNATURE TABLE
ST_SET: 1
ST_WAY: 256
ST_TAG_BIT: 16
ST_TAG_MASK: ffff

Initialize PATTERN TABLE
PT_SET: 512
PT_WAY: 4
SIG_DELTA_BIT: 7
C_SIG_BIT: 4
C_DELTA_BIT: 4

Initialize PREFETCH FILTER
FILTER_SET: 1024

*** ChampSim Multicore Out-of-Order Simulator ***

Warmup Instructions: 50000000
Simulation Instructions: 50000000
Number of CPUs: 1
LLC sets: 2048
LLC ways: 16
Off-chip DRAM Size: 4096 MB Channels: 1 Width: 64-bit Data Rate: 3200 MT/s

CPU 0 runs /home/ChampSim-master//dpc3_traces/server_026.champsimtrace.xz
CPU 0 EPI prefetcher
CPU 0 L1D next line prefetcher
Heartbeat CPU 0 instructions: 10000000 cycles: 3523776 heartbeat IPC: 2.83786 cumulative IPC: 2.83786 (Simulation time: 0 hr 3 min 29 sec) 
Heartbeat CPU 0 instructions: 20000002 cycles: 7052567 heartbeat IPC: 2.83383 cumulative IPC: 2.83585 (Simulation time: 0 hr 7 min 11 sec) 
Heartbeat CPU 0 instructions: 30000000 cycles: 10572248 heartbeat IPC: 2.84117 cumulative IPC: 2.83762 (Simulation time: 0 hr 10 min 19 sec) 
Heartbeat CPU 0 instructions: 40000003 cycles: 14100096 heartbeat IPC: 2.83459 cumulative IPC: 2.83686 (Simulation time: 0 hr 13 min 33 sec) 
Heartbeat CPU 0 instructions: 50000000 cycles: 17621595 heartbeat IPC: 2.8397 cumulative IPC: 2.83743 (Simulation time: 0 hr 16 min 42 sec) 

Warmup complete CPU 0 instructions: 50000004 cycles: 17621596 (Simulation time: 0 hr 16 min 42 sec) 

*** Reached end of trace for Core: 0 Repeating trace: /home/ChampSim-master//dpc3_traces/server_026.champsimtrace.xz
Heartbeat CPU 0 instructions: 60000000 cycles: 24650780 heartbeat IPC: 1.42264 cumulative IPC: 1.42264 (Simulation time: 0 hr 19 min 40 sec) 
Heartbeat CPU 0 instructions: 70000003 cycles: 31566425 heartbeat IPC: 1.446 cumulative IPC: 1.43422 (Simulation time: 0 hr 22 min 36 sec) 
Heartbeat CPU 0 instructions: 80000002 cycles: 38577709 heartbeat IPC: 1.42627 cumulative IPC: 1.43156 (Simulation time: 0 hr 25 min 27 sec) 
Heartbeat CPU 0 instructions: 90000002 cycles: 45478958 heartbeat IPC: 1.44901 cumulative IPC: 1.43589 (Simulation time: 0 hr 27 min 30 sec) 
Heartbeat CPU 0 instructions: 100000000 cycles: 52456538 heartbeat IPC: 1.43316 cumulative IPC: 1.43534 (Simulation time: 0 hr 28 min 45 sec) 
Finished CPU 0 instructions: 50000000 cycles: 34834943 cumulative IPC: 1.43534 (Simulation time: 0 hr 28 min 45 sec) 

ChampSim completed all CPUs

Region of Interest Statistics

CPU 0 cumulative IPC: 1.43534 instructions: 50000000 cycles: 34834943
L1D TOTAL     ACCESS:   19899390  HIT:   18254178  MISS:    1645212
L1D LOAD      ACCESS:    6994251  HIT:    6265250  MISS:     729001
L1D RFO       ACCESS:    6246835  HIT:    5959949  MISS:     286886
L1D PREFETCH  ACCESS:    6658304  HIT:    6028979  MISS:     629325
L1D WRITEBACK ACCESS:          0  HIT:          0  MISS:          0
L1D PREFETCH  REQUESTED:    7041400  ISSUED:    6898639  USEFUL:     151381  USELESS:     477955
L1D AVERAGE MISS LATENCY: 23.85 cycles
L1I TOTAL     ACCESS:   25709067  HIT:   22418619  MISS:    3290448
L1I LOAD      ACCESS:    9365066  HIT:    9096151  MISS:     268915
L1I RFO       ACCESS:          0  HIT:          0  MISS:          0
L1I PREFETCH  ACCESS:   16344001  HIT:   13322468  MISS:    3021533
L1I WRITEBACK ACCESS:          0  HIT:          0  MISS:          0
L1I PREFETCH  REQUESTED:   19246261  ISSUED:   19246261  USEFUL:    2523924  USELESS:     497663
L1I AVERAGE MISS LATENCY: 18.6009 cycles
L2C TOTAL     ACCESS:    6988391  HIT:    6215170  MISS:     773221
L2C LOAD      ACCESS:     900811  HIT:     728345  MISS:     172466
L2C RFO       ACCESS:     284672  HIT:     190478  MISS:      94194
L2C PREFETCH  ACCESS:    5241755  HIT:    4738799  MISS:     502956
L2C WRITEBACK ACCESS:     561153  HIT:     557548  MISS:       3605
L2C PREFETCH  REQUESTED:    5549036  ISSUED:    5534798  USEFUL:      15434  USELESS:     486987
L2C AVERAGE MISS LATENCY: 38.5265 cycles
LLC TOTAL     ACCESS:    2415118  HIT:    2377934  MISS:      37184
LLC LOAD      ACCESS:     172240  HIT:     168620  MISS:       3620
LLC RFO       ACCESS:      94184  HIT:      79596  MISS:      14588
LLC PREFETCH  ACCESS:    1988294  HIT:    1969552  MISS:      18742
LLC WRITEBACK ACCESS:     160400  HIT:     160166  MISS:        234
LLC PREFETCH  REQUESTED:          0  ISSUED:          0  USEFUL:       1095  USELESS:      17771
LLC AVERAGE MISS LATENCY: 184.266 cycles
Major fault: 0 Minor fault: 2165
CPU 0 L1I EPI prefetcher final stats
CPU 0 L1D next line prefetcher final stats

DRAM Statistics
 CHANNEL 0
 RQ ROW_BUFFER_HIT:      13276  ROW_BUFFER_MISS:      23667
 DBUS_CONGESTED:      24117
 WQ ROW_BUFFER_HIT:       1506  ROW_BUFFER_MISS:      14264  FULL:          0

 AVG_CONGESTED_CYCLE: 6

CPU 0 Branch Prediction Accuracy: 99.822% MPKI: 0.32584 Average ROB Occupancy at Mispredict: 179.72

Branch types
NOT_BRANCH: 40848574 81.6971%
BRANCH_DIRECT_JUMP: 522045 1.04409%
BRANCH_INDIRECT: 204034 0.408068%
BRANCH_CONDITIONAL: 6212963 12.4259%
BRANCH_DIRECT_CALL: 932393 1.86479%
BRANCH_INDIRECT_CALL: 173764 0.347528%
BRANCH_RETURN: 1106152 2.2123%
BRANCH_OTHER: 0 0%

