Initialize SIGNATURE TABLE
ST_SET: 1
ST_WAY: 256
ST_TAG_BIT: 16
ST_TAG_MASK: ffff

Initialize PATTERN TABLE
PT_SET: 512
PT_WAY: 4
SIG_DELTA_BIT: 7
C_SIG_BIT: 4
C_DELTA_BIT: 4

Initialize PREFETCH FILTER
FILTER_SET: 1024

*** ChampSim Multicore Out-of-Order Simulator ***

Warmup Instructions: 50000000
Simulation Instructions: 50000000
Number of CPUs: 1
LLC sets: 2048
LLC ways: 16
Off-chip DRAM Size: 4096 MB Channels: 1 Width: 64-bit Data Rate: 3200 MT/s

CPU 0 runs /home/ChampSim-master//dpc3_traces/server_025.champsimtrace.xz
CPU 0 EPI prefetcher
CPU 0 L1D next line prefetcher
Heartbeat CPU 0 instructions: 10000003 cycles: 3525017 heartbeat IPC: 2.83687 cumulative IPC: 2.83687 (Simulation time: 0 hr 3 min 30 sec) 
Heartbeat CPU 0 instructions: 20000000 cycles: 7057122 heartbeat IPC: 2.83117 cumulative IPC: 2.83402 (Simulation time: 0 hr 6 min 46 sec) 
Heartbeat CPU 0 instructions: 30000001 cycles: 10582068 heartbeat IPC: 2.83692 cumulative IPC: 2.83498 (Simulation time: 0 hr 10 min 15 sec) 
Heartbeat CPU 0 instructions: 40000003 cycles: 14112454 heartbeat IPC: 2.83255 cumulative IPC: 2.83438 (Simulation time: 0 hr 13 min 28 sec) 
Heartbeat CPU 0 instructions: 50000001 cycles: 17640882 heartbeat IPC: 2.83412 cumulative IPC: 2.83433 (Simulation time: 0 hr 16 min 31 sec) 

Warmup complete CPU 0 instructions: 50000001 cycles: 17640882 (Simulation time: 0 hr 16 min 31 sec) 

Heartbeat CPU 0 instructions: 60000002 cycles: 24515931 heartbeat IPC: 1.45454 cumulative IPC: 1.45454 (Simulation time: 0 hr 19 min 29 sec) 
Heartbeat CPU 0 instructions: 70000000 cycles: 31493286 heartbeat IPC: 1.43321 cumulative IPC: 1.44379 (Simulation time: 0 hr 22 min 23 sec) 
Heartbeat CPU 0 instructions: 80000002 cycles: 38379136 heartbeat IPC: 1.45225 cumulative IPC: 1.4466 (Simulation time: 0 hr 25 min 10 sec) 
Heartbeat CPU 0 instructions: 90000001 cycles: 44919150 heartbeat IPC: 1.52905 cumulative IPC: 1.46637 (Simulation time: 0 hr 27 min 18 sec) 
Heartbeat CPU 0 instructions: 100000003 cycles: 51175924 heartbeat IPC: 1.59827 cumulative IPC: 1.49098 (Simulation time: 0 hr 28 min 40 sec) 
Finished CPU 0 instructions: 50000002 cycles: 33535042 cumulative IPC: 1.49098 (Simulation time: 0 hr 28 min 40 sec) 

ChampSim completed all CPUs

Region of Interest Statistics

CPU 0 cumulative IPC: 1.49098 instructions: 50000002 cycles: 33535042
L1D TOTAL     ACCESS:   20084768  HIT:   18659355  MISS:    1425413
L1D LOAD      ACCESS:    7009893  HIT:    6390812  MISS:     619081
L1D RFO       ACCESS:    6377650  HIT:    6129305  MISS:     248345
L1D PREFETCH  ACCESS:    6697225  HIT:    6139238  MISS:     557987
L1D WRITEBACK ACCESS:          0  HIT:          0  MISS:          0
L1D PREFETCH  REQUESTED:    7050969  ISSUED:    6877027  USEFUL:     130704  USELESS:     427276
L1D AVERAGE MISS LATENCY: 23.0532 cycles
L1I TOTAL     ACCESS:   27587262  HIT:   24684573  MISS:    2902689
L1I LOAD      ACCESS:    9385353  HIT:    9142819  MISS:     242534
L1I RFO       ACCESS:          0  HIT:          0  MISS:          0
L1I PREFETCH  ACCESS:   18201909  HIT:   15541754  MISS:    2660155
L1I WRITEBACK ACCESS:          0  HIT:          0  MISS:          0
L1I PREFETCH  REQUESTED:   21738516  ISSUED:   21738516  USEFUL:    2232438  USELESS:     427790
L1I AVERAGE MISS LATENCY: 18.7053 cycles
L2C TOTAL     ACCESS:    6065400  HIT:    5405775  MISS:     659625
L2C LOAD      ACCESS:     786276  HIT:     653706  MISS:     132570
L2C RFO       ACCESS:     246739  HIT:     168013  MISS:      78726
L2C PREFETCH  ACCESS:    4535672  HIT:    4091382  MISS:     444290
L2C WRITEBACK ACCESS:     496713  HIT:     492674  MISS:       4039
L2C PREFETCH  REQUESTED:    4427918  ISSUED:    4420521  USEFUL:      10370  USELESS:     433459
L2C AVERAGE MISS LATENCY: 38.1196 cycles
LLC TOTAL     ACCESS:    1985514  HIT:    1955212  MISS:      30302
LLC LOAD      ACCESS:     132450  HIT:     129138  MISS:       3312
LLC RFO       ACCESS:      78723  HIT:      67916  MISS:      10807
LLC PREFETCH  ACCESS:    1643936  HIT:    1627943  MISS:      15993
LLC WRITEBACK ACCESS:     130405  HIT:     130215  MISS:        190
LLC PREFETCH  REQUESTED:          0  ISSUED:          0  USEFUL:       1139  USELESS:      13649
LLC AVERAGE MISS LATENCY: 180.724 cycles
Major fault: 0 Minor fault: 2458
CPU 0 L1I EPI prefetcher final stats
CPU 0 L1D next line prefetcher final stats

DRAM Statistics
 CHANNEL 0
 RQ ROW_BUFFER_HIT:       9563  ROW_BUFFER_MISS:      20545
 DBUS_CONGESTED:      18901
 WQ ROW_BUFFER_HIT:       1432  ROW_BUFFER_MISS:      11990  FULL:          0

 AVG_CONGESTED_CYCLE: 6

CPU 0 Branch Prediction Accuracy: 99.8142% MPKI: 0.34676 Average ROB Occupancy at Mispredict: 179.37

Branch types
NOT_BRANCH: 40668857 81.3377%
BRANCH_DIRECT_JUMP: 531700 1.0634%
BRANCH_INDIRECT: 199025 0.39805%
BRANCH_CONDITIONAL: 6211486 12.423%
BRANCH_DIRECT_CALL: 1010910 2.02182%
BRANCH_INDIRECT_CALL: 183501 0.367002%
BRANCH_RETURN: 1194415 2.38883%
BRANCH_OTHER: 0 0%

