Initialize SIGNATURE TABLE
ST_SET: 1
ST_WAY: 256
ST_TAG_BIT: 16
ST_TAG_MASK: ffff

Initialize PATTERN TABLE
PT_SET: 512
PT_WAY: 4
SIG_DELTA_BIT: 7
C_SIG_BIT: 4
C_DELTA_BIT: 4

Initialize PREFETCH FILTER
FILTER_SET: 1024

*** ChampSim Multicore Out-of-Order Simulator ***

Warmup Instructions: 50000000
Simulation Instructions: 50000000
Number of CPUs: 1
LLC sets: 2048
LLC ways: 16
Off-chip DRAM Size: 4096 MB Channels: 1 Width: 64-bit Data Rate: 3200 MT/s

CPU 0 runs /home/ChampSim-master//dpc3_traces/server_018.champsimtrace.xz
L1I D-JOLT instruction prefetcher has been constructed!
CPU 0 L1D next line prefetcher
Heartbeat CPU 0 instructions: 10000003 cycles: 3616630 heartbeat IPC: 2.76501 cumulative IPC: 2.76501 (Simulation time: 0 hr 3 min 44 sec) 
Heartbeat CPU 0 instructions: 20000001 cycles: 7238122 heartbeat IPC: 2.76129 cumulative IPC: 2.76315 (Simulation time: 0 hr 6 min 56 sec) 
Heartbeat CPU 0 instructions: 30000003 cycles: 10713602 heartbeat IPC: 2.8773 cumulative IPC: 2.80018 (Simulation time: 0 hr 9 min 57 sec) 
Heartbeat CPU 0 instructions: 40000000 cycles: 14225826 heartbeat IPC: 2.8472 cumulative IPC: 2.81179 (Simulation time: 0 hr 12 min 48 sec) 
Heartbeat CPU 0 instructions: 50000003 cycles: 17843683 heartbeat IPC: 2.76407 cumulative IPC: 2.80211 (Simulation time: 0 hr 15 min 38 sec) 

Warmup complete CPU 0 instructions: 50000003 cycles: 17843683 (Simulation time: 0 hr 15 min 38 sec) 

Heartbeat CPU 0 instructions: 60000000 cycles: 35386405 heartbeat IPC: 0.570037 cumulative IPC: 0.570037 (Simulation time: 0 hr 19 min 3 sec) 
Heartbeat CPU 0 instructions: 70000001 cycles: 52902150 heartbeat IPC: 0.570915 cumulative IPC: 0.570476 (Simulation time: 0 hr 22 min 24 sec) 
Heartbeat CPU 0 instructions: 80000001 cycles: 70303700 heartbeat IPC: 0.574661 cumulative IPC: 0.571864 (Simulation time: 0 hr 25 min 18 sec) 
Heartbeat CPU 0 instructions: 90000002 cycles: 87666644 heartbeat IPC: 0.575939 cumulative IPC: 0.572877 (Simulation time: 0 hr 26 min 46 sec) 
Heartbeat CPU 0 instructions: 100000001 cycles: 105089094 heartbeat IPC: 0.573972 cumulative IPC: 0.573096 (Simulation time: 0 hr 27 min 22 sec) 
Finished CPU 0 instructions: 50000002 cycles: 87245412 cumulative IPC: 0.573096 (Simulation time: 0 hr 27 min 22 sec) 

ChampSim completed all CPUs

Region of Interest Statistics

CPU 0 cumulative IPC: 0.573096 instructions: 50000002 cycles: 87245412
L1D TOTAL     ACCESS:   18617430  HIT:   16399589  MISS:    2217841
L1D LOAD      ACCESS:    7043763  HIT:    6321287  MISS:     722476
L1D RFO       ACCESS:    5803696  HIT:    4851357  MISS:     952339
L1D PREFETCH  ACCESS:    5769971  HIT:    5226945  MISS:     543026
L1D WRITEBACK ACCESS:          0  HIT:          0  MISS:          0
L1D PREFETCH  REQUESTED:    7084849  ISSUED:    6882865  USEFUL:     203177  USELESS:     339938
L1D AVERAGE MISS LATENCY: 178.447 cycles
L1I TOTAL     ACCESS:   18521679  HIT:   15030210  MISS:    3491469
L1I LOAD      ACCESS:   10134126  HIT:   10088491  MISS:      45635
L1I RFO       ACCESS:          0  HIT:          0  MISS:          0
L1I PREFETCH  ACCESS:    8387553  HIT:    4941719  MISS:    3445834
L1I WRITEBACK ACCESS:          0  HIT:          0  MISS:          0
L1I PREFETCH  REQUESTED:    9019488  ISSUED:    8950789  USEFUL:    2733851  USELESS:     711883
L1I AVERAGE MISS LATENCY: 17.827 cycles
L2C TOTAL     ACCESS:    8394144  HIT:    6529428  MISS:    1864716
L2C LOAD      ACCESS:     540560  HIT:     276077  MISS:     264483
L2C RFO       ACCESS:     951762  HIT:      18733  MISS:     933029
L2C PREFETCH  ACCESS:    5731742  HIT:    5068347  MISS:     663395
L2C WRITEBACK ACCESS:    1170080  HIT:    1166271  MISS:       3809
L2C PREFETCH  REQUESTED:    5132760  ISSUED:    5127376  USEFUL:      21588  USELESS:     643033
L2C AVERAGE MISS LATENCY: 216.963 cycles
LLC TOTAL     ACCESS:    4272574  HIT:    2813738  MISS:    1458836
LLC LOAD      ACCESS:     264447  HIT:     166315  MISS:      98132
LLC RFO       ACCESS:     933029  HIT:     137006  MISS:     796023
LLC PREFETCH  ACCESS:    1971274  HIT:    1408915  MISS:     562359
LLC WRITEBACK ACCESS:    1103824  HIT:    1101502  MISS:       2322
LLC PREFETCH  REQUESTED:          0  ISSUED:          0  USEFUL:      31682  USELESS:     530681
LLC AVERAGE MISS LATENCY: 286.426 cycles
Major fault: 0 Minor fault: 22445
CPU 0 L1D next line prefetcher final stats

DRAM Statistics
 CHANNEL 0
 RQ ROW_BUFFER_HIT:     408626  ROW_BUFFER_MISS:    1047580
 DBUS_CONGESTED:    1464207
 WQ ROW_BUFFER_HIT:     254182  ROW_BUFFER_MISS:     644110  FULL:          0

 AVG_CONGESTED_CYCLE: 6

CPU 0 Branch Prediction Accuracy: 99.7114% MPKI: 0.47678 Average ROB Occupancy at Mispredict: 213.273

Branch types
NOT_BRANCH: 41741008 83.482%
BRANCH_DIRECT_JUMP: 458652 0.917304%
BRANCH_INDIRECT: 48282 0.096564%
BRANCH_CONDITIONAL: 5930881 11.8618%
BRANCH_DIRECT_CALL: 744230 1.48846%
BRANCH_INDIRECT_CALL: 166336 0.332672%
BRANCH_RETURN: 910589 1.82118%
BRANCH_OTHER: 0 0%

