Initialize SIGNATURE TABLE
ST_SET: 1
ST_WAY: 256
ST_TAG_BIT: 16
ST_TAG_MASK: ffff

Initialize PATTERN TABLE
PT_SET: 512
PT_WAY: 4
SIG_DELTA_BIT: 7
C_SIG_BIT: 4
C_DELTA_BIT: 4

Initialize PREFETCH FILTER
FILTER_SET: 1024

*** ChampSim Multicore Out-of-Order Simulator ***

Warmup Instructions: 50000000
Simulation Instructions: 50000000
Number of CPUs: 1
LLC sets: 2048
LLC ways: 16
Off-chip DRAM Size: 4096 MB Channels: 1 Width: 64-bit Data Rate: 3200 MT/s

CPU 0 runs /home/ChampSim-master//dpc3_traces/server_018.champsimtrace.xz
L1I D-JOLT instruction prefetcher has been constructed!
CPU 0 L1D next line prefetcher
Heartbeat CPU 0 instructions: 10000003 cycles: 3616708 heartbeat IPC: 2.76495 cumulative IPC: 2.76495 (Simulation time: 0 hr 3 min 9 sec) 
Heartbeat CPU 0 instructions: 20000001 cycles: 7238485 heartbeat IPC: 2.76108 cumulative IPC: 2.76301 (Simulation time: 0 hr 6 min 20 sec) 
Heartbeat CPU 0 instructions: 30000003 cycles: 10713639 heartbeat IPC: 2.87757 cumulative IPC: 2.80017 (Simulation time: 0 hr 9 min 32 sec) 
Heartbeat CPU 0 instructions: 40000000 cycles: 14226022 heartbeat IPC: 2.84707 cumulative IPC: 2.81175 (Simulation time: 0 hr 13 min 0 sec) 
Heartbeat CPU 0 instructions: 50000003 cycles: 17844439 heartbeat IPC: 2.76364 cumulative IPC: 2.80199 (Simulation time: 0 hr 16 min 26 sec) 

Warmup complete CPU 0 instructions: 50000003 cycles: 17844439 (Simulation time: 0 hr 16 min 26 sec) 

Heartbeat CPU 0 instructions: 60000000 cycles: 35360989 heartbeat IPC: 0.570889 cumulative IPC: 0.570889 (Simulation time: 0 hr 20 min 16 sec) 
Heartbeat CPU 0 instructions: 70000001 cycles: 52997545 heartbeat IPC: 0.567004 cumulative IPC: 0.56894 (Simulation time: 0 hr 24 min 3 sec) 
Heartbeat CPU 0 instructions: 80000001 cycles: 70640621 heartbeat IPC: 0.566795 cumulative IPC: 0.568223 (Simulation time: 0 hr 27 min 27 sec) 
Heartbeat CPU 0 instructions: 90000002 cycles: 88556886 heartbeat IPC: 0.558152 cumulative IPC: 0.565671 (Simulation time: 0 hr 29 min 21 sec) 
Heartbeat CPU 0 instructions: 100000001 cycles: 106319641 heartbeat IPC: 0.562976 cumulative IPC: 0.56513 (Simulation time: 0 hr 29 min 59 sec) 
Finished CPU 0 instructions: 50000002 cycles: 88475203 cumulative IPC: 0.56513 (Simulation time: 0 hr 29 min 59 sec) 

ChampSim completed all CPUs

Region of Interest Statistics

CPU 0 cumulative IPC: 0.56513 instructions: 50000002 cycles: 88475203
L1D TOTAL     ACCESS:   18620250  HIT:   16402625  MISS:    2217625
L1D LOAD      ACCESS:    7044345  HIT:    6316294  MISS:     728051
L1D RFO       ACCESS:    5810360  HIT:    4857937  MISS:     952423
L1D PREFETCH  ACCESS:    5765545  HIT:    5228394  MISS:     537151
L1D WRITEBACK ACCESS:          0  HIT:          0  MISS:          0
L1D PREFETCH  REQUESTED:    7085234  ISSUED:    6881660  USEFUL:     197488  USELESS:     339752
L1D AVERAGE MISS LATENCY: 177.04 cycles
L1I TOTAL     ACCESS:   18360351  HIT:   15027348  MISS:    3333003
L1I LOAD      ACCESS:   10145189  HIT:   10099416  MISS:      45773
L1I RFO       ACCESS:          0  HIT:          0  MISS:          0
L1I PREFETCH  ACCESS:    8215162  HIT:    4927932  MISS:    3287230
L1I WRITEBACK ACCESS:          0  HIT:          0  MISS:          0
L1I PREFETCH  REQUESTED:    8829349  ISSUED:    8749502  USEFUL:    2678964  USELESS:     608175
L1I AVERAGE MISS LATENCY: 17.8811 cycles
L2C TOTAL     ACCESS:    8167665  HIT:    6302893  MISS:    1864772
L2C LOAD      ACCESS:     541235  HIT:     277605  MISS:     263630
L2C RFO       ACCESS:     951674  HIT:      19409  MISS:     932265
L2C PREFETCH  ACCESS:    5504780  HIT:    4839292  MISS:     665488
L2C WRITEBACK ACCESS:    1169976  HIT:    1166587  MISS:       3389
L2C PREFETCH  REQUESTED:    4774608  ISSUED:    4770371  USEFUL:      21422  USELESS:     645179
L2C AVERAGE MISS LATENCY: 216.932 cycles
LLC TOTAL     ACCESS:    4200274  HIT:    2741510  MISS:    1458764
LLC LOAD      ACCESS:     263600  HIT:     164292  MISS:      99308
LLC RFO       ACCESS:     932264  HIT:     134893  MISS:     797371
LLC PREFETCH  ACCESS:    1901621  HIT:    1341772  MISS:     559849
LLC WRITEBACK ACCESS:    1102789  HIT:    1100553  MISS:       2236
LLC PREFETCH  REQUESTED:          0  ISSUED:          0  USEFUL:      29976  USELESS:     530003
LLC AVERAGE MISS LATENCY: 282.891 cycles
Major fault: 0 Minor fault: 22446
CPU 0 L1D next line prefetcher final stats

DRAM Statistics
 CHANNEL 0
 RQ ROW_BUFFER_HIT:     409473  ROW_BUFFER_MISS:    1046792
 DBUS_CONGESTED:    1454537
 WQ ROW_BUFFER_HIT:     262986  ROW_BUFFER_MISS:     635233  FULL:          0

 AVG_CONGESTED_CYCLE: 6

CPU 0 Branch Prediction Accuracy: 99.7114% MPKI: 0.47678 Average ROB Occupancy at Mispredict: 212.981

Branch types
NOT_BRANCH: 41741008 83.482%
BRANCH_DIRECT_JUMP: 458652 0.917304%
BRANCH_INDIRECT: 48282 0.096564%
BRANCH_CONDITIONAL: 5930881 11.8618%
BRANCH_DIRECT_CALL: 744230 1.48846%
BRANCH_INDIRECT_CALL: 166336 0.332672%
BRANCH_RETURN: 910589 1.82118%
BRANCH_OTHER: 0 0%

