Initialize SIGNATURE TABLE
ST_SET: 1
ST_WAY: 256
ST_TAG_BIT: 16
ST_TAG_MASK: ffff

Initialize PATTERN TABLE
PT_SET: 512
PT_WAY: 4
SIG_DELTA_BIT: 7
C_SIG_BIT: 4
C_DELTA_BIT: 4

Initialize PREFETCH FILTER
FILTER_SET: 1024

*** ChampSim Multicore Out-of-Order Simulator ***

Warmup Instructions: 50000000
Simulation Instructions: 50000000
Number of CPUs: 1
LLC sets: 2048
LLC ways: 16
Off-chip DRAM Size: 4096 MB Channels: 1 Width: 64-bit Data Rate: 3200 MT/s

CPU 0 runs /home/ChampSim-master//dpc3_traces/server_022.champsimtrace.xz
L1I D-JOLT instruction prefetcher has been constructed!
CPU 0 L1D next line prefetcher
Heartbeat CPU 0 instructions: 10000002 cycles: 3623500 heartbeat IPC: 2.75976 cumulative IPC: 2.75976 (Simulation time: 0 hr 3 min 13 sec) 
Heartbeat CPU 0 instructions: 20000001 cycles: 7253764 heartbeat IPC: 2.75462 cumulative IPC: 2.75719 (Simulation time: 0 hr 6 min 1 sec) 
Heartbeat CPU 0 instructions: 30000003 cycles: 10877471 heartbeat IPC: 2.75961 cumulative IPC: 2.75799 (Simulation time: 0 hr 9 min 10 sec) 
Heartbeat CPU 0 instructions: 40000003 cycles: 14508542 heartbeat IPC: 2.75401 cumulative IPC: 2.757 (Simulation time: 0 hr 12 min 28 sec) 
Heartbeat CPU 0 instructions: 50000002 cycles: 18129568 heartbeat IPC: 2.76165 cumulative IPC: 2.75793 (Simulation time: 0 hr 15 min 9 sec) 

Warmup complete CPU 0 instructions: 50000002 cycles: 18129568 (Simulation time: 0 hr 15 min 9 sec) 

Heartbeat CPU 0 instructions: 60000000 cycles: 34857441 heartbeat IPC: 0.597804 cumulative IPC: 0.597804 (Simulation time: 0 hr 18 min 25 sec) 
Heartbeat CPU 0 instructions: 70000001 cycles: 51770036 heartbeat IPC: 0.591275 cumulative IPC: 0.594522 (Simulation time: 0 hr 21 min 36 sec) 
Heartbeat CPU 0 instructions: 80000001 cycles: 68573846 heartbeat IPC: 0.595103 cumulative IPC: 0.594716 (Simulation time: 0 hr 24 min 6 sec) 
Heartbeat CPU 0 instructions: 90000003 cycles: 85580803 heartbeat IPC: 0.587995 cumulative IPC: 0.593021 (Simulation time: 0 hr 25 min 1 sec) 
Heartbeat CPU 0 instructions: 100000003 cycles: 102393837 heartbeat IPC: 0.594777 cumulative IPC: 0.593371 (Simulation time: 0 hr 25 min 32 sec) 
Finished CPU 0 instructions: 50000001 cycles: 84264269 cumulative IPC: 0.593371 (Simulation time: 0 hr 25 min 32 sec) 

ChampSim completed all CPUs

Region of Interest Statistics

CPU 0 cumulative IPC: 0.593371 instructions: 50000001 cycles: 84264269
L1D TOTAL     ACCESS:   18694374  HIT:   16483623  MISS:    2210751
L1D LOAD      ACCESS:    7051607  HIT:    6344263  MISS:     707344
L1D RFO       ACCESS:    5888143  HIT:    4908559  MISS:     979584
L1D PREFETCH  ACCESS:    5754624  HIT:    5230801  MISS:     523823
L1D WRITEBACK ACCESS:          0  HIT:          0  MISS:          0
L1D PREFETCH  REQUESTED:    7093400  ISSUED:    6885751  USEFUL:     202604  USELESS:     321227
L1D AVERAGE MISS LATENCY: 181.469 cycles
L1I TOTAL     ACCESS:   18342188  HIT:   14858244  MISS:    3483944
L1I LOAD      ACCESS:   10168511  HIT:   10130038  MISS:      38473
L1I RFO       ACCESS:          0  HIT:          0  MISS:          0
L1I PREFETCH  ACCESS:    8173677  HIT:    4728206  MISS:    3445471
L1I WRITEBACK ACCESS:          0  HIT:          0  MISS:          0
L1I PREFETCH  REQUESTED:    8737980  ISSUED:    8685549  USEFUL:    2767984  USELESS:     677508
L1I AVERAGE MISS LATENCY: 17.5117 cycles
L2C TOTAL     ACCESS:    8355061  HIT:    6487343  MISS:    1867718
L2C LOAD      ACCESS:     509374  HIT:     263372  MISS:     246002
L2C RFO       ACCESS:     978968  HIT:      20378  MISS:     958590
L2C PREFETCH  ACCESS:    5681558  HIT:    5021211  MISS:     660347
L2C WRITEBACK ACCESS:    1185161  HIT:    1182382  MISS:       2779
L2C PREFETCH  REQUESTED:    5010475  ISSUED:    5003905  USEFUL:      19351  USELESS:     641057
L2C AVERAGE MISS LATENCY: 220.962 cycles
LLC TOTAL     ACCESS:    4261904  HIT:    2863351  MISS:    1398553
LLC LOAD      ACCESS:     245899  HIT:     173171  MISS:      72728
LLC RFO       ACCESS:     958588  HIT:     140702  MISS:     817886
LLC PREFETCH  ACCESS:    1938962  HIT:    1433090  MISS:     505872
LLC WRITEBACK ACCESS:    1118455  HIT:    1116388  MISS:       2067
LLC PREFETCH  REQUESTED:          0  ISSUED:          0  USEFUL:      26950  USELESS:     479346
LLC AVERAGE MISS LATENCY: 296.801 cycles
Major fault: 0 Minor fault: 23509
CPU 0 L1D next line prefetcher final stats

DRAM Statistics
 CHANNEL 0
 RQ ROW_BUFFER_HIT:     398194  ROW_BUFFER_MISS:     998001
 DBUS_CONGESTED:    1446364
 WQ ROW_BUFFER_HIT:     264539  ROW_BUFFER_MISS:     635320  FULL:          0

 AVG_CONGESTED_CYCLE: 6

CPU 0 Branch Prediction Accuracy: 99.8317% MPKI: 0.27564 Average ROB Occupancy at Mispredict: 222.586

Branch types
NOT_BRANCH: 41811152 83.6223%
BRANCH_DIRECT_JUMP: 445742 0.891484%
BRANCH_INDIRECT: 48876 0.097752%
BRANCH_CONDITIONAL: 5859407 11.7188%
BRANCH_DIRECT_CALL: 758267 1.51653%
BRANCH_INDIRECT_CALL: 159103 0.318206%
BRANCH_RETURN: 917372 1.83474%
BRANCH_OTHER: 0 0%

