Initialize SIGNATURE TABLE
ST_SET: 1
ST_WAY: 256
ST_TAG_BIT: 16
ST_TAG_MASK: ffff

Initialize PATTERN TABLE
PT_SET: 512
PT_WAY: 4
SIG_DELTA_BIT: 7
C_SIG_BIT: 4
C_DELTA_BIT: 4

Initialize PREFETCH FILTER
FILTER_SET: 1024

*** ChampSim Multicore Out-of-Order Simulator ***

Warmup Instructions: 50000000
Simulation Instructions: 50000000
Number of CPUs: 1
LLC sets: 2048
LLC ways: 16
Off-chip DRAM Size: 4096 MB Channels: 1 Width: 64-bit Data Rate: 3200 MT/s

CPU 0 runs /home/ChampSim-master//dpc3_traces/server_027.champsimtrace.xz
L1I D-JOLT instruction prefetcher has been constructed!
CPU 0 L1D next line prefetcher
Heartbeat CPU 0 instructions: 10000001 cycles: 3529047 heartbeat IPC: 2.83363 cumulative IPC: 2.83363 (Simulation time: 0 hr 2 min 56 sec) 
Heartbeat CPU 0 instructions: 20000001 cycles: 7063247 heartbeat IPC: 2.82949 cumulative IPC: 2.83156 (Simulation time: 0 hr 5 min 54 sec) 
Heartbeat CPU 0 instructions: 30000002 cycles: 10592780 heartbeat IPC: 2.83324 cumulative IPC: 2.83212 (Simulation time: 0 hr 9 min 27 sec) 
Heartbeat CPU 0 instructions: 40000000 cycles: 14127930 heartbeat IPC: 2.82873 cumulative IPC: 2.83127 (Simulation time: 0 hr 12 min 55 sec) 
Heartbeat CPU 0 instructions: 50000001 cycles: 17657209 heartbeat IPC: 2.83344 cumulative IPC: 2.8317 (Simulation time: 0 hr 16 min 11 sec) 

Warmup complete CPU 0 instructions: 50000001 cycles: 17657209 (Simulation time: 0 hr 16 min 11 sec) 

Heartbeat CPU 0 instructions: 60000002 cycles: 24538824 heartbeat IPC: 1.45315 cumulative IPC: 1.45315 (Simulation time: 0 hr 19 min 24 sec) 
Heartbeat CPU 0 instructions: 70000003 cycles: 31372191 heartbeat IPC: 1.46341 cumulative IPC: 1.45826 (Simulation time: 0 hr 22 min 9 sec) 
Heartbeat CPU 0 instructions: 80000002 cycles: 38212433 heartbeat IPC: 1.46194 cumulative IPC: 1.45948 (Simulation time: 0 hr 24 min 32 sec) 
Heartbeat CPU 0 instructions: 90000001 cycles: 45133336 heartbeat IPC: 1.4449 cumulative IPC: 1.45581 (Simulation time: 0 hr 26 min 2 sec) 
Heartbeat CPU 0 instructions: 100000002 cycles: 51946148 heartbeat IPC: 1.46782 cumulative IPC: 1.4582 (Simulation time: 0 hr 26 min 39 sec) 
Finished CPU 0 instructions: 50000001 cycles: 34288939 cumulative IPC: 1.4582 (Simulation time: 0 hr 26 min 39 sec) 

ChampSim completed all CPUs

Region of Interest Statistics

CPU 0 cumulative IPC: 1.4582 instructions: 50000001 cycles: 34288939
L1D TOTAL     ACCESS:   19866664  HIT:   18265067  MISS:    1601597
L1D LOAD      ACCESS:    6936033  HIT:    6243080  MISS:     692953
L1D RFO       ACCESS:    6284726  HIT:    5999722  MISS:     285004
L1D PREFETCH  ACCESS:    6645905  HIT:    6022265  MISS:     623640
L1D WRITEBACK ACCESS:          0  HIT:          0  MISS:          0
L1D PREFETCH  REQUESTED:    6981049  ISSUED:    6853679  USEFUL:     148710  USELESS:     474941
L1D AVERAGE MISS LATENCY: 24.4172 cycles
L1I TOTAL     ACCESS:   16711602  HIT:   13212945  MISS:    3498657
L1I LOAD      ACCESS:    9499297  HIT:    9458484  MISS:      40813
L1I RFO       ACCESS:          0  HIT:          0  MISS:          0
L1I PREFETCH  ACCESS:    7212305  HIT:    3754461  MISS:    3457844
L1I WRITEBACK ACCESS:          0  HIT:          0  MISS:          0
L1I PREFETCH  REQUESTED:    7676795  ISSUED:    7544603  USEFUL:    2796628  USELESS:     661226
L1I AVERAGE MISS LATENCY: 20.0967 cycles
L2C TOTAL     ACCESS:    7036429  HIT:    6064150  MISS:     972279
L2C LOAD      ACCESS:     693522  HIT:     543365  MISS:     150157
L2C RFO       ACCESS:     283541  HIT:     190978  MISS:      92563
L2C PREFETCH  ACCESS:    5500171  HIT:    4776258  MISS:     723913
L2C WRITEBACK ACCESS:     559195  HIT:     553549  MISS:       5646
L2C PREFETCH  REQUESTED:    4859264  ISSUED:    4851106  USEFUL:      11892  USELESS:     711824
L2C AVERAGE MISS LATENCY: 36.8824 cycles
LLC TOTAL     ACCESS:    2513624  HIT:    2480629  MISS:      32995
LLC LOAD      ACCESS:     149981  HIT:     146465  MISS:       3516
LLC RFO       ACCESS:      92552  HIT:      78615  MISS:      13937
LLC PREFETCH  ACCESS:    2105105  HIT:    2089719  MISS:      15386
LLC WRITEBACK ACCESS:     165986  HIT:     165830  MISS:        156
LLC PREFETCH  REQUESTED:          0  ISSUED:          0  USEFUL:       1310  USELESS:      13840
LLC AVERAGE MISS LATENCY: 185.759 cycles
Major fault: 0 Minor fault: 2484
CPU 0 L1D next line prefetcher final stats

DRAM Statistics
 CHANNEL 0
 RQ ROW_BUFFER_HIT:      10823  ROW_BUFFER_MISS:      22012
 DBUS_CONGESTED:      22588
 WQ ROW_BUFFER_HIT:       1523  ROW_BUFFER_MISS:      14546  FULL:          0

 AVG_CONGESTED_CYCLE: 6

CPU 0 Branch Prediction Accuracy: 99.8082% MPKI: 0.35064 Average ROB Occupancy at Mispredict: 193.158

Branch types
NOT_BRANCH: 40857507 81.715%
BRANCH_DIRECT_JUMP: 526635 1.05327%
BRANCH_INDIRECT: 205902 0.411804%
BRANCH_CONDITIONAL: 6184050 12.3681%
BRANCH_DIRECT_CALL: 938468 1.87694%
BRANCH_INDIRECT_CALL: 174486 0.348972%
BRANCH_RETURN: 1112959 2.22592%
BRANCH_OTHER: 0 0%

