Initialize SIGNATURE TABLE
ST_SET: 1
ST_WAY: 256
ST_TAG_BIT: 16
ST_TAG_MASK: ffff

Initialize PATTERN TABLE
PT_SET: 512
PT_WAY: 4
SIG_DELTA_BIT: 7
C_SIG_BIT: 4
C_DELTA_BIT: 4

Initialize PREFETCH FILTER
FILTER_SET: 1024

*** ChampSim Multicore Out-of-Order Simulator ***

Warmup Instructions: 50000000
Simulation Instructions: 50000000
Number of CPUs: 1
LLC sets: 2048
LLC ways: 16
Off-chip DRAM Size: 4096 MB Channels: 1 Width: 64-bit Data Rate: 3200 MT/s

CPU 0 runs /home/ChampSim-master//dpc3_traces/server_031.champsimtrace.xz
L1I D-JOLT instruction prefetcher has been constructed!
CPU 0 L1D next line prefetcher
Heartbeat CPU 0 instructions: 10000003 cycles: 3522912 heartbeat IPC: 2.83856 cumulative IPC: 2.83856 (Simulation time: 0 hr 2 min 45 sec) 
Heartbeat CPU 0 instructions: 20000002 cycles: 7044408 heartbeat IPC: 2.8397 cumulative IPC: 2.83913 (Simulation time: 0 hr 5 min 29 sec) 
Heartbeat CPU 0 instructions: 30000002 cycles: 10565877 heartbeat IPC: 2.83972 cumulative IPC: 2.83933 (Simulation time: 0 hr 8 min 35 sec) 
Heartbeat CPU 0 instructions: 40000003 cycles: 14082477 heartbeat IPC: 2.84366 cumulative IPC: 2.84041 (Simulation time: 0 hr 11 min 25 sec) 
Heartbeat CPU 0 instructions: 50000001 cycles: 17601164 heartbeat IPC: 2.84197 cumulative IPC: 2.84072 (Simulation time: 0 hr 14 min 17 sec) 

Warmup complete CPU 0 instructions: 50000001 cycles: 17601164 (Simulation time: 0 hr 14 min 17 sec) 

Heartbeat CPU 0 instructions: 60000001 cycles: 25086556 heartbeat IPC: 1.33594 cumulative IPC: 1.33594 (Simulation time: 0 hr 17 min 10 sec) 
Heartbeat CPU 0 instructions: 70000002 cycles: 32602384 heartbeat IPC: 1.33053 cumulative IPC: 1.33323 (Simulation time: 0 hr 20 min 14 sec) 
*** Reached end of trace for Core: 0 Repeating trace: /home/ChampSim-master//dpc3_traces/server_031.champsimtrace.xz
Heartbeat CPU 0 instructions: 80000000 cycles: 39987021 heartbeat IPC: 1.35416 cumulative IPC: 1.34013 (Simulation time: 0 hr 23 min 1 sec) 
Heartbeat CPU 0 instructions: 90000003 cycles: 47408114 heartbeat IPC: 1.34751 cumulative IPC: 1.34197 (Simulation time: 0 hr 25 min 14 sec) 
Heartbeat CPU 0 instructions: 100000000 cycles: 54803022 heartbeat IPC: 1.35228 cumulative IPC: 1.34402 (Simulation time: 0 hr 26 min 28 sec) 
Finished CPU 0 instructions: 50000000 cycles: 37201860 cumulative IPC: 1.34402 (Simulation time: 0 hr 26 min 28 sec) 

ChampSim completed all CPUs

Region of Interest Statistics

CPU 0 cumulative IPC: 1.34402 instructions: 50000000 cycles: 37201860
L1D TOTAL     ACCESS:   19507494  HIT:   17603140  MISS:    1904354
L1D LOAD      ACCESS:    6761132  HIT:    5888338  MISS:     872794
L1D RFO       ACCESS:    6327050  HIT:    6035638  MISS:     291412
L1D PREFETCH  ACCESS:    6419312  HIT:    5679164  MISS:     740148
L1D WRITEBACK ACCESS:          0  HIT:          0  MISS:          0
L1D PREFETCH  REQUESTED:    6821804  ISSUED:    6707706  USEFUL:     174384  USELESS:     565768
L1D AVERAGE MISS LATENCY: 22.6974 cycles
L1I TOTAL     ACCESS:   17171153  HIT:   13620323  MISS:    3550830
L1I LOAD      ACCESS:    9734187  HIT:    9693141  MISS:      41046
L1I RFO       ACCESS:          0  HIT:          0  MISS:          0
L1I PREFETCH  ACCESS:    7436966  HIT:    3927182  MISS:    3509784
L1I WRITEBACK ACCESS:          0  HIT:          0  MISS:          0
L1I PREFETCH  REQUESTED:    7908770  ISSUED:    7794061  USEFUL:    3020983  USELESS:     488804
L1I AVERAGE MISS LATENCY: 18.0624 cycles
L2C TOTAL     ACCESS:    7744159  HIT:    7089298  MISS:     654861
L2C LOAD      ACCESS:     862461  HIT:     730037  MISS:     132424
L2C RFO       ACCESS:     289345  HIT:     246089  MISS:      43256
L2C PREFETCH  ACCESS:    5975423  HIT:    5497323  MISS:     478100
L2C WRITEBACK ACCESS:     616930  HIT:     615849  MISS:       1081
L2C PREFETCH  REQUESTED:    5383361  ISSUED:    5372923  USEFUL:       4705  USELESS:     472781
L2C AVERAGE MISS LATENCY: 43.8624 cycles
LLC TOTAL     ACCESS:    2113757  HIT:    2037553  MISS:      76204
LLC LOAD      ACCESS:     132391  HIT:     113684  MISS:      18707
LLC RFO       ACCESS:      43235  HIT:      39103  MISS:       4132
LLC PREFETCH  ACCESS:    1853197  HIT:    1800391  MISS:      52806
LLC WRITEBACK ACCESS:      84934  HIT:      84375  MISS:        559
LLC PREFETCH  REQUESTED:          0  ISSUED:          0  USEFUL:       2460  USELESS:      51236
LLC AVERAGE MISS LATENCY: 157.987 cycles
Major fault: 0 Minor fault: 6046
CPU 0 L1D next line prefetcher final stats

DRAM Statistics
 CHANNEL 0
 RQ ROW_BUFFER_HIT:      20490  ROW_BUFFER_MISS:      55149
 DBUS_CONGESTED:      29384
 WQ ROW_BUFFER_HIT:        690  ROW_BUFFER_MISS:       5154  FULL:          0

 AVG_CONGESTED_CYCLE: 4

CPU 0 Branch Prediction Accuracy: 99.6894% MPKI: 0.58048 Average ROB Occupancy at Mispredict: 140.301

Branch types
NOT_BRANCH: 40655730 81.3115%
BRANCH_DIRECT_JUMP: 546483 1.09297%
BRANCH_INDIRECT: 172433 0.344866%
BRANCH_CONDITIONAL: 6207601 12.4152%
BRANCH_DIRECT_CALL: 1018499 2.037%
BRANCH_INDIRECT_CALL: 190373 0.380746%
BRANCH_RETURN: 1208856 2.41771%
BRANCH_OTHER: 0 0%

