Initialize SIGNATURE TABLE
ST_SET: 1
ST_WAY: 256
ST_TAG_BIT: 16
ST_TAG_MASK: ffff

Initialize PATTERN TABLE
PT_SET: 512
PT_WAY: 4
SIG_DELTA_BIT: 7
C_SIG_BIT: 4
C_DELTA_BIT: 4

Initialize PREFETCH FILTER
FILTER_SET: 1024

*** ChampSim Multicore Out-of-Order Simulator ***

Warmup Instructions: 50000000
Simulation Instructions: 50000000
Number of CPUs: 1
LLC sets: 2048
LLC ways: 16
Off-chip DRAM Size: 4096 MB Channels: 1 Width: 64-bit Data Rate: 3200 MT/s

CPU 0 runs /home/ChampSim-master//dpc3_traces/server_017.champsimtrace.xz
CPU 0 EPI prefetcher
CPU 0 L1D next line prefetcher
Heartbeat CPU 0 instructions: 10000001 cycles: 3622608 heartbeat IPC: 2.76044 cumulative IPC: 2.76044 (Simulation time: 0 hr 3 min 15 sec) 
Heartbeat CPU 0 instructions: 20000000 cycles: 7243158 heartbeat IPC: 2.76201 cumulative IPC: 2.76123 (Simulation time: 0 hr 6 min 30 sec) 
Heartbeat CPU 0 instructions: 30000002 cycles: 10870075 heartbeat IPC: 2.75716 cumulative IPC: 2.75987 (Simulation time: 0 hr 9 min 45 sec) 
Heartbeat CPU 0 instructions: 40000000 cycles: 14492842 heartbeat IPC: 2.76032 cumulative IPC: 2.75998 (Simulation time: 0 hr 13 min 16 sec) 
Heartbeat CPU 0 instructions: 50000001 cycles: 18126872 heartbeat IPC: 2.75177 cumulative IPC: 2.75834 (Simulation time: 0 hr 16 min 21 sec) 

Warmup complete CPU 0 instructions: 50000001 cycles: 18126872 (Simulation time: 0 hr 16 min 21 sec) 

Heartbeat CPU 0 instructions: 60000002 cycles: 36242829 heartbeat IPC: 0.552 cumulative IPC: 0.552 (Simulation time: 0 hr 19 min 44 sec) 
Heartbeat CPU 0 instructions: 70000002 cycles: 54533440 heartbeat IPC: 0.546729 cumulative IPC: 0.549351 (Simulation time: 0 hr 23 min 6 sec) 
Heartbeat CPU 0 instructions: 80000000 cycles: 72591657 heartbeat IPC: 0.553764 cumulative IPC: 0.550815 (Simulation time: 0 hr 25 min 52 sec) 
Heartbeat CPU 0 instructions: 90000002 cycles: 96353201 heartbeat IPC: 0.420848 cumulative IPC: 0.511337 (Simulation time: 0 hr 27 min 21 sec) 
Heartbeat CPU 0 instructions: 100000003 cycles: 116975129 heartbeat IPC: 0.484921 cumulative IPC: 0.505826 (Simulation time: 0 hr 27 min 59 sec) 
Finished CPU 0 instructions: 50000002 cycles: 98848257 cumulative IPC: 0.505826 (Simulation time: 0 hr 27 min 59 sec) 

ChampSim completed all CPUs

Region of Interest Statistics

CPU 0 cumulative IPC: 0.505826 instructions: 50000002 cycles: 98848257
L1D TOTAL     ACCESS:   18802254  HIT:   16636606  MISS:    2165648
L1D LOAD      ACCESS:    7225031  HIT:    6474834  MISS:     750197
L1D RFO       ACCESS:    5537963  HIT:    4678692  MISS:     859271
L1D PREFETCH  ACCESS:    6039260  HIT:    5483080  MISS:     556180
L1D WRITEBACK ACCESS:          0  HIT:          0  MISS:          0
L1D PREFETCH  REQUESTED:    7264030  ISSUED:    7085459  USEFUL:     193738  USELESS:     362503
L1D AVERAGE MISS LATENCY: 173.886 cycles
L1I TOTAL     ACCESS:   21824237  HIT:   19693080  MISS:    2131157
L1I LOAD      ACCESS:    9775590  HIT:    9172270  MISS:     603320
L1I RFO       ACCESS:          0  HIT:          0  MISS:          0
L1I PREFETCH  ACCESS:   12048647  HIT:   10520810  MISS:    1527837
L1I WRITEBACK ACCESS:          0  HIT:          0  MISS:          0
L1I PREFETCH  REQUESTED:   12660471  ISSUED:   12660471  USEFUL:    1475455  USELESS:      52385
L1I AVERAGE MISS LATENCY: 18.2527 cycles
L2C TOTAL     ACCESS:    6822716  HIT:    4980969  MISS:    1841747
L2C LOAD      ACCESS:    1092051  HIT:     736555  MISS:     355496
L2C RFO       ACCESS:     858670  HIT:      17476  MISS:     841194
L2C PREFETCH  ACCESS:    3749159  HIT:    3106034  MISS:     643125
L2C WRITEBACK ACCESS:    1122836  HIT:    1120904  MISS:       1932
L2C PREFETCH  REQUESTED:    3548066  ISSUED:    3545800  USEFUL:      23859  USELESS:     619804
L2C AVERAGE MISS LATENCY: 208.483 cycles
LLC TOTAL     ACCESS:    4004440  HIT:    2478146  MISS:    1526294
LLC LOAD      ACCESS:     355371  HIT:     194662  MISS:     160709
LLC RFO       ACCESS:     841193  HIT:     122428  MISS:     718765
LLC PREFETCH  ACCESS:    1746814  HIT:    1101986  MISS:     644828
LLC WRITEBACK ACCESS:    1061062  HIT:    1059070  MISS:       1992
LLC PREFETCH  REQUESTED:          0  ISSUED:          0  USEFUL:      50688  USELESS:     593569
LLC AVERAGE MISS LATENCY: 261.076 cycles
Major fault: 0 Minor fault: 24694
CPU 0 L1I EPI prefetcher final stats
CPU 0 L1D next line prefetcher final stats

DRAM Statistics
 CHANNEL 0
 RQ ROW_BUFFER_HIT:     381392  ROW_BUFFER_MISS:    1142734
 DBUS_CONGESTED:    1449184
 WQ ROW_BUFFER_HIT:     263872  ROW_BUFFER_MISS:     613430  FULL:          0

 AVG_CONGESTED_CYCLE: 6

CPU 0 Branch Prediction Accuracy: 99.2833% MPKI: 1.20568 Average ROB Occupancy at Mispredict: 178.683

Branch types
NOT_BRANCH: 41588346 83.1767%
BRANCH_DIRECT_JUMP: 464501 0.929002%
BRANCH_INDIRECT: 45704 0.091408%
BRANCH_CONDITIONAL: 6147408 12.2948%
BRANCH_DIRECT_CALL: 675450 1.3509%
BRANCH_INDIRECT_CALL: 201532 0.403064%
BRANCH_RETURN: 876985 1.75397%
BRANCH_OTHER: 0 0%

