Initialize SIGNATURE TABLE
ST_SET: 1
ST_WAY: 256
ST_TAG_BIT: 16
ST_TAG_MASK: ffff

Initialize PATTERN TABLE
PT_SET: 512
PT_WAY: 4
SIG_DELTA_BIT: 7
C_SIG_BIT: 4
C_DELTA_BIT: 4

Initialize PREFETCH FILTER
FILTER_SET: 1024

*** ChampSim Multicore Out-of-Order Simulator ***

Warmup Instructions: 50000000
Simulation Instructions: 50000000
Number of CPUs: 1
LLC sets: 2048
LLC ways: 16
Off-chip DRAM Size: 4096 MB Channels: 1 Width: 64-bit Data Rate: 3200 MT/s

CPU 0 runs /home/ChampSim-master//dpc3_traces/server_002.champsimtrace.xz
CPU 0 EPI prefetcher
CPU 0 L1D next line prefetcher
Heartbeat CPU 0 instructions: 10000000 cycles: 3581224 heartbeat IPC: 2.79234 cumulative IPC: 2.79234 (Simulation time: 0 hr 2 min 51 sec) 
Heartbeat CPU 0 instructions: 20000002 cycles: 7170143 heartbeat IPC: 2.78635 cumulative IPC: 2.78935 (Simulation time: 0 hr 5 min 48 sec) 
Heartbeat CPU 0 instructions: 30000000 cycles: 10710897 heartbeat IPC: 2.82426 cumulative IPC: 2.80089 (Simulation time: 0 hr 8 min 47 sec) 
Heartbeat CPU 0 instructions: 40000000 cycles: 14261142 heartbeat IPC: 2.81671 cumulative IPC: 2.80482 (Simulation time: 0 hr 12 min 3 sec) 
Heartbeat CPU 0 instructions: 50000001 cycles: 17808913 heartbeat IPC: 2.81867 cumulative IPC: 2.80758 (Simulation time: 0 hr 15 min 11 sec) 

Warmup complete CPU 0 instructions: 50000001 cycles: 17808913 (Simulation time: 0 hr 15 min 11 sec) 

Heartbeat CPU 0 instructions: 60000000 cycles: 24251152 heartbeat IPC: 1.55226 cumulative IPC: 1.55226 (Simulation time: 0 hr 18 min 20 sec) 
Heartbeat CPU 0 instructions: 70000003 cycles: 30685290 heartbeat IPC: 1.55421 cumulative IPC: 1.55323 (Simulation time: 0 hr 21 min 37 sec) 
Heartbeat CPU 0 instructions: 80000003 cycles: 37121498 heartbeat IPC: 1.55371 cumulative IPC: 1.55339 (Simulation time: 0 hr 24 min 22 sec) 
Heartbeat CPU 0 instructions: 90000002 cycles: 43555612 heartbeat IPC: 1.55422 cumulative IPC: 1.5536 (Simulation time: 0 hr 26 min 43 sec) 
Heartbeat CPU 0 instructions: 100000003 cycles: 49989152 heartbeat IPC: 1.55435 cumulative IPC: 1.55375 (Simulation time: 0 hr 28 min 19 sec) 
Finished CPU 0 instructions: 50000002 cycles: 32180239 cumulative IPC: 1.55375 (Simulation time: 0 hr 28 min 19 sec) 

ChampSim completed all CPUs

Region of Interest Statistics

CPU 0 cumulative IPC: 1.55375 instructions: 50000002 cycles: 32180239
L1D TOTAL     ACCESS:   21523706  HIT:   21522898  MISS:        808
L1D LOAD      ACCESS:    6601487  HIT:    6601112  MISS:        375
L1D RFO       ACCESS:    8433024  HIT:    8432912  MISS:        112
L1D PREFETCH  ACCESS:    6489195  HIT:    6488874  MISS:        321
L1D WRITEBACK ACCESS:          0  HIT:          0  MISS:          0
L1D PREFETCH  REQUESTED:    6601536  ISSUED:    6496566  USEFUL:         91  USELESS:        231
L1D AVERAGE MISS LATENCY: 42.9295 cycles
L1I TOTAL     ACCESS:   34406955  HIT:   33221126  MISS:    1185829
L1I LOAD      ACCESS:    9846707  HIT:    9802987  MISS:      43720
L1I RFO       ACCESS:          0  HIT:          0  MISS:          0
L1I PREFETCH  ACCESS:   24560248  HIT:   23418139  MISS:    1142109
L1I WRITEBACK ACCESS:          0  HIT:          0  MISS:          0
L1I PREFETCH  REQUESTED:   28391195  ISSUED:   28391195  USEFUL:     997064  USELESS:     145058
L1I AVERAGE MISS LATENCY: 13.9283 cycles
L2C TOTAL     ACCESS:    1540547  HIT:    1540213  MISS:        334
L2C LOAD      ACCESS:      23844  HIT:      23773  MISS:         71
L2C RFO       ACCESS:        112  HIT:        110  MISS:          2
L2C PREFETCH  ACCESS:    1516256  HIT:    1515998  MISS:        258
L2C WRITEBACK ACCESS:        335  HIT:        332  MISS:          3
L2C PREFETCH  REQUESTED:     944730  ISSUED:     944715  USEFUL:         74  USELESS:        149
L2C AVERAGE MISS LATENCY: 233.512 cycles
LLC TOTAL     ACCESS:     321387  HIT:     320573  MISS:        814
LLC LOAD      ACCESS:         71  HIT:         58  MISS:         13
LLC RFO       ACCESS:          2  HIT:          0  MISS:          2
LLC PREFETCH  ACCESS:     321203  HIT:     320409  MISS:        794
LLC WRITEBACK ACCESS:        111  HIT:        106  MISS:          5
LLC PREFETCH  REQUESTED:          0  ISSUED:          0  USEFUL:         10  USELESS:        201
LLC AVERAGE MISS LATENCY: 567.392 cycles
Major fault: 0 Minor fault: 1867
CPU 0 L1I EPI prefetcher final stats
CPU 0 L1D next line prefetcher final stats

DRAM Statistics
 CHANNEL 0
 RQ ROW_BUFFER_HIT:        208  ROW_BUFFER_MISS:        601
 DBUS_CONGESTED:        578
 WQ ROW_BUFFER_HIT:        116  ROW_BUFFER_MISS:        419  FULL:          0

 AVG_CONGESTED_CYCLE: 6

CPU 0 Branch Prediction Accuracy: 99.8789% MPKI: 0.20388 Average ROB Occupancy at Mispredict: 279.553

Branch types
NOT_BRANCH: 41580695 83.1614%
BRANCH_DIRECT_JUMP: 461630 0.92326%
BRANCH_INDIRECT: 0 0%
BRANCH_CONDITIONAL: 5376437 10.7529%
BRANCH_DIRECT_CALL: 1175775 2.35155%
BRANCH_INDIRECT_CALL: 114840 0.22968%
BRANCH_RETURN: 1290625 2.58125%
BRANCH_OTHER: 0 0%

