Initialize SIGNATURE TABLE
ST_SET: 1
ST_WAY: 256
ST_TAG_BIT: 16
ST_TAG_MASK: ffff

Initialize PATTERN TABLE
PT_SET: 512
PT_WAY: 4
SIG_DELTA_BIT: 7
C_SIG_BIT: 4
C_DELTA_BIT: 4

Initialize PREFETCH FILTER
FILTER_SET: 1024

*** ChampSim Multicore Out-of-Order Simulator ***

Warmup Instructions: 50000000
Simulation Instructions: 50000000
Number of CPUs: 1
LLC sets: 2048
LLC ways: 16
Off-chip DRAM Size: 4096 MB Channels: 1 Width: 64-bit Data Rate: 3200 MT/s

CPU 0 runs /home/ChampSim-master//dpc3_traces/server_037.champsimtrace.xz
L1I D-JOLT instruction prefetcher has been constructed!
CPU 0 L1D next line prefetcher
Heartbeat CPU 0 instructions: 10000001 cycles: 3319046 heartbeat IPC: 3.01291 cumulative IPC: 3.01291 (Simulation time: 0 hr 2 min 58 sec) 
Heartbeat CPU 0 instructions: 20000002 cycles: 6635607 heartbeat IPC: 3.01517 cumulative IPC: 3.01404 (Simulation time: 0 hr 5 min 43 sec) 
Heartbeat CPU 0 instructions: 30000003 cycles: 10000062 heartbeat IPC: 2.97225 cumulative IPC: 2.99998 (Simulation time: 0 hr 8 min 28 sec) 
Heartbeat CPU 0 instructions: 40000000 cycles: 13318410 heartbeat IPC: 3.01355 cumulative IPC: 3.00336 (Simulation time: 0 hr 11 min 18 sec) 
Heartbeat CPU 0 instructions: 50000003 cycles: 16636876 heartbeat IPC: 3.01344 cumulative IPC: 3.00537 (Simulation time: 0 hr 14 min 41 sec) 

Warmup complete CPU 0 instructions: 50000003 cycles: 16636876 (Simulation time: 0 hr 14 min 41 sec) 

Heartbeat CPU 0 instructions: 60000001 cycles: 23037610 heartbeat IPC: 1.56232 cumulative IPC: 1.56232 (Simulation time: 0 hr 18 min 0 sec) 
Heartbeat CPU 0 instructions: 70000000 cycles: 29531774 heartbeat IPC: 1.53984 cumulative IPC: 1.551 (Simulation time: 0 hr 21 min 2 sec) 
Heartbeat CPU 0 instructions: 80000000 cycles: 35932727 heartbeat IPC: 1.56227 cumulative IPC: 1.55474 (Simulation time: 0 hr 23 min 45 sec) 
Heartbeat CPU 0 instructions: 90000002 cycles: 42353748 heartbeat IPC: 1.55739 cumulative IPC: 1.5554 (Simulation time: 0 hr 25 min 49 sec) 
*** Reached end of trace for Core: 0 Repeating trace: /home/ChampSim-master//dpc3_traces/server_037.champsimtrace.xz
Heartbeat CPU 0 instructions: 100000000 cycles: 48764439 heartbeat IPC: 1.55989 cumulative IPC: 1.5563 (Simulation time: 0 hr 26 min 53 sec) 
Finished CPU 0 instructions: 50000001 cycles: 32127564 cumulative IPC: 1.5563 (Simulation time: 0 hr 26 min 53 sec) 

ChampSim completed all CPUs

Region of Interest Statistics

CPU 0 cumulative IPC: 1.5563 instructions: 50000001 cycles: 32127564
L1D TOTAL     ACCESS:   18685307  HIT:   17707403  MISS:     977904
L1D LOAD      ACCESS:    6358566  HIT:    5867071  MISS:     491495
L1D RFO       ACCESS:    6205009  HIT:    6140882  MISS:      64127
L1D PREFETCH  ACCESS:    6121732  HIT:    5699450  MISS:     422282
L1D WRITEBACK ACCESS:          0  HIT:          0  MISS:          0
L1D PREFETCH  REQUESTED:    6396425  ISSUED:    6243369  USEFUL:     117257  USELESS:     305029
L1D AVERAGE MISS LATENCY: 29.718 cycles
L1I TOTAL     ACCESS:   20213329  HIT:   15212606  MISS:    5000723
L1I LOAD      ACCESS:    9462382  HIT:    9410747  MISS:      51635
L1I RFO       ACCESS:          0  HIT:          0  MISS:          0
L1I PREFETCH  ACCESS:   10750947  HIT:    5801859  MISS:    4949088
L1I WRITEBACK ACCESS:          0  HIT:          0  MISS:          0
L1I PREFETCH  REQUESTED:   11270698  ISSUED:   11242788  USEFUL:    4081093  USELESS:     868016
L1I AVERAGE MISS LATENCY: 14.8064 cycles
L2C TOTAL     ACCESS:    8962505  HIT:    8635399  MISS:     327106
L2C LOAD      ACCESS:     536436  HIT:     390983  MISS:     145453
L2C RFO       ACCESS:      63820  HIT:      35361  MISS:      28459
L2C PREFETCH  ACCESS:    8072640  HIT:    7920790  MISS:     151850
L2C WRITEBACK ACCESS:     289609  HIT:     288265  MISS:       1344
L2C PREFETCH  REQUESTED:    6572594  ISSUED:    6550237  USEFUL:       7293  USELESS:     144378
L2C AVERAGE MISS LATENCY: 45.3106 cycles
LLC TOTAL     ACCESS:    1782534  HIT:    1723806  MISS:      58728
LLC LOAD      ACCESS:     145425  HIT:     132281  MISS:      13144
LLC RFO       ACCESS:      28458  HIT:      23631  MISS:       4827
LLC PREFETCH  ACCESS:    1461072  HIT:    1420889  MISS:      40183
LLC WRITEBACK ACCESS:     147579  HIT:     147005  MISS:        574
LLC PREFETCH  REQUESTED:          0  ISSUED:          0  USEFUL:       3732  USELESS:      36295
LLC AVERAGE MISS LATENCY: 166.969 cycles
Major fault: 0 Minor fault: 5654
CPU 0 L1D next line prefetcher final stats

DRAM Statistics
 CHANNEL 0
 RQ ROW_BUFFER_HIT:       8943  ROW_BUFFER_MISS:      49211
 DBUS_CONGESTED:      28132
 WQ ROW_BUFFER_HIT:       1315  ROW_BUFFER_MISS:      10776  FULL:          0

 AVG_CONGESTED_CYCLE: 5

CPU 0 Branch Prediction Accuracy: 99.913% MPKI: 0.15656 Average ROB Occupancy at Mispredict: 228.855

Branch types
NOT_BRANCH: 41001725 82.0034%
BRANCH_DIRECT_JUMP: 541941 1.08388%
BRANCH_INDIRECT: 59716 0.119432%
BRANCH_CONDITIONAL: 5916854 11.8337%
BRANCH_DIRECT_CALL: 1005465 2.01093%
BRANCH_INDIRECT_CALL: 234433 0.468866%
BRANCH_RETURN: 1239877 2.47975%
BRANCH_OTHER: 0 0%

