Initialize SIGNATURE TABLE
ST_SET: 1
ST_WAY: 256
ST_TAG_BIT: 16
ST_TAG_MASK: ffff

Initialize PATTERN TABLE
PT_SET: 512
PT_WAY: 4
SIG_DELTA_BIT: 7
C_SIG_BIT: 4
C_DELTA_BIT: 4

Initialize PREFETCH FILTER
FILTER_SET: 1024

*** ChampSim Multicore Out-of-Order Simulator ***

Warmup Instructions: 50000000
Simulation Instructions: 50000000
Number of CPUs: 1
LLC sets: 2048
LLC ways: 16
Off-chip DRAM Size: 4096 MB Channels: 1 Width: 64-bit Data Rate: 3200 MT/s

CPU 0 runs /home/ChampSim-master//dpc3_traces/server_026.champsimtrace.xz
L1I D-JOLT instruction prefetcher has been constructed!
CPU 0 L1D next line prefetcher
Heartbeat CPU 0 instructions: 10000000 cycles: 3522491 heartbeat IPC: 2.8389 cumulative IPC: 2.8389 (Simulation time: 0 hr 3 min 4 sec) 
Heartbeat CPU 0 instructions: 20000002 cycles: 7050834 heartbeat IPC: 2.83419 cumulative IPC: 2.83654 (Simulation time: 0 hr 5 min 59 sec) 
Heartbeat CPU 0 instructions: 30000000 cycles: 10569011 heartbeat IPC: 2.84238 cumulative IPC: 2.83849 (Simulation time: 0 hr 8 min 51 sec) 
Heartbeat CPU 0 instructions: 40000003 cycles: 14096427 heartbeat IPC: 2.83494 cumulative IPC: 2.8376 (Simulation time: 0 hr 11 min 59 sec) 
Heartbeat CPU 0 instructions: 50000000 cycles: 17616875 heartbeat IPC: 2.84055 cumulative IPC: 2.83819 (Simulation time: 0 hr 14 min 54 sec) 

Warmup complete CPU 0 instructions: 50000004 cycles: 17616876 (Simulation time: 0 hr 14 min 54 sec) 

*** Reached end of trace for Core: 0 Repeating trace: /home/ChampSim-master//dpc3_traces/server_026.champsimtrace.xz
Heartbeat CPU 0 instructions: 60000000 cycles: 24523698 heartbeat IPC: 1.44784 cumulative IPC: 1.44784 (Simulation time: 0 hr 17 min 43 sec) 
Heartbeat CPU 0 instructions: 70000003 cycles: 31323692 heartbeat IPC: 1.47059 cumulative IPC: 1.45913 (Simulation time: 0 hr 20 min 27 sec) 
Heartbeat CPU 0 instructions: 80000002 cycles: 38219761 heartbeat IPC: 1.4501 cumulative IPC: 1.45611 (Simulation time: 0 hr 23 min 8 sec) 
Heartbeat CPU 0 instructions: 90000002 cycles: 45019976 heartbeat IPC: 1.47054 cumulative IPC: 1.45969 (Simulation time: 0 hr 25 min 26 sec) 
Heartbeat CPU 0 instructions: 100000000 cycles: 51893213 heartbeat IPC: 1.45492 cumulative IPC: 1.45873 (Simulation time: 0 hr 26 min 38 sec) 
Finished CPU 0 instructions: 50000000 cycles: 34276338 cumulative IPC: 1.45873 (Simulation time: 0 hr 26 min 38 sec) 

ChampSim completed all CPUs

Region of Interest Statistics

CPU 0 cumulative IPC: 1.45873 instructions: 50000000 cycles: 34276338
L1D TOTAL     ACCESS:   19756952  HIT:   18112000  MISS:    1644952
L1D LOAD      ACCESS:    6926656  HIT:    6197986  MISS:     728670
L1D RFO       ACCESS:    6239958  HIT:    5953653  MISS:     286305
L1D PREFETCH  ACCESS:    6590338  HIT:    5960361  MISS:     629977
L1D WRITEBACK ACCESS:          0  HIT:          0  MISS:          0
L1D PREFETCH  REQUESTED:    6974222  ISSUED:    6831772  USEFUL:     152335  USELESS:     477652
L1D AVERAGE MISS LATENCY: 24.3308 cycles
L1I TOTAL     ACCESS:   15769045  HIT:   12650678  MISS:    3118367
L1I LOAD      ACCESS:    9500433  HIT:    9443714  MISS:      56719
L1I RFO       ACCESS:          0  HIT:          0  MISS:          0
L1I PREFETCH  ACCESS:    6268612  HIT:    3206964  MISS:    3061648
L1I WRITEBACK ACCESS:          0  HIT:          0  MISS:          0
L1I PREFETCH  REQUESTED:    6620328  ISSUED:    6569366  USEFUL:    2721575  USELESS:     340049
L1I AVERAGE MISS LATENCY: 19.9169 cycles
L2C TOTAL     ACCESS:    6638112  HIT:    5728678  MISS:     909434
L2C LOAD      ACCESS:     724884  HIT:     574513  MISS:     150371
L2C RFO       ACCESS:     284541  HIT:     182508  MISS:     102033
L2C PREFETCH  ACCESS:    5067498  HIT:    4414944  MISS:     652554
L2C WRITEBACK ACCESS:     561189  HIT:     556713  MISS:       4476
L2C PREFETCH  REQUESTED:    4608113  ISSUED:    4604096  USEFUL:      12659  USELESS:     639736
L2C AVERAGE MISS LATENCY: 37.6122 cycles
LLC TOTAL     ACCESS:    2341423  HIT:    2305477  MISS:      35946
LLC LOAD      ACCESS:     150120  HIT:     146636  MISS:       3484
LLC RFO       ACCESS:     102025  HIT:      87470  MISS:      14555
LLC PREFETCH  ACCESS:    1917365  HIT:    1899653  MISS:      17712
LLC WRITEBACK ACCESS:     171913  HIT:     171718  MISS:        195
LLC PREFETCH  REQUESTED:          0  ISSUED:          0  USEFUL:       1037  USELESS:      16964
LLC AVERAGE MISS LATENCY: 189.009 cycles
Major fault: 0 Minor fault: 2173
CPU 0 L1D next line prefetcher final stats

DRAM Statistics
 CHANNEL 0
 RQ ROW_BUFFER_HIT:      12539  ROW_BUFFER_MISS:      23205
 DBUS_CONGESTED:      23183
 WQ ROW_BUFFER_HIT:       1498  ROW_BUFFER_MISS:      14245  FULL:          0

 AVG_CONGESTED_CYCLE: 6

CPU 0 Branch Prediction Accuracy: 99.822% MPKI: 0.32584 Average ROB Occupancy at Mispredict: 200.418

Branch types
NOT_BRANCH: 40848574 81.6971%
BRANCH_DIRECT_JUMP: 522045 1.04409%
BRANCH_INDIRECT: 204034 0.408068%
BRANCH_CONDITIONAL: 6212963 12.4259%
BRANCH_DIRECT_CALL: 932393 1.86479%
BRANCH_INDIRECT_CALL: 173764 0.347528%
BRANCH_RETURN: 1106152 2.2123%
BRANCH_OTHER: 0 0%

