Initialize SIGNATURE TABLE
ST_SET: 1
ST_WAY: 256
ST_TAG_BIT: 16
ST_TAG_MASK: ffff

Initialize PATTERN TABLE
PT_SET: 512
PT_WAY: 4
SIG_DELTA_BIT: 7
C_SIG_BIT: 4
C_DELTA_BIT: 4

Initialize PREFETCH FILTER
FILTER_SET: 1024

*** ChampSim Multicore Out-of-Order Simulator ***

Warmup Instructions: 50000000
Simulation Instructions: 50000000
Number of CPUs: 1
LLC sets: 2048
LLC ways: 16
Off-chip DRAM Size: 4096 MB Channels: 1 Width: 64-bit Data Rate: 3200 MT/s

CPU 0 runs /home/ChampSim-master//dpc3_traces/server_014.champsimtrace.xz
L1I D-JOLT instruction prefetcher has been constructed!
CPU 0 L1D next line prefetcher
Heartbeat CPU 0 instructions: 10000003 cycles: 3519561 heartbeat IPC: 2.84126 cumulative IPC: 2.84126 (Simulation time: 0 hr 3 min 9 sec) 
Heartbeat CPU 0 instructions: 20000000 cycles: 7106428 heartbeat IPC: 2.78795 cumulative IPC: 2.81435 (Simulation time: 0 hr 6 min 11 sec) 
Heartbeat CPU 0 instructions: 30000001 cycles: 10647924 heartbeat IPC: 2.82367 cumulative IPC: 2.81745 (Simulation time: 0 hr 8 min 59 sec) 
Heartbeat CPU 0 instructions: 40000003 cycles: 14196146 heartbeat IPC: 2.81831 cumulative IPC: 2.81767 (Simulation time: 0 hr 11 min 39 sec) 
Heartbeat CPU 0 instructions: 50000000 cycles: 17744820 heartbeat IPC: 2.81795 cumulative IPC: 2.81772 (Simulation time: 0 hr 14 min 26 sec) 

Warmup complete CPU 0 instructions: 50000001 cycles: 17744821 (Simulation time: 0 hr 14 min 26 sec) 

Heartbeat CPU 0 instructions: 60000000 cycles: 24032133 heartbeat IPC: 1.5905 cumulative IPC: 1.5905 (Simulation time: 0 hr 17 min 22 sec) 
Heartbeat CPU 0 instructions: 70000003 cycles: 30325156 heartbeat IPC: 1.58906 cumulative IPC: 1.58978 (Simulation time: 0 hr 20 min 24 sec) 
*** Reached end of trace for Core: 0 Repeating trace: /home/ChampSim-master//dpc3_traces/server_014.champsimtrace.xz
Heartbeat CPU 0 instructions: 80000001 cycles: 36887442 heartbeat IPC: 1.52386 cumulative IPC: 1.56718 (Simulation time: 0 hr 23 min 1 sec) 
Heartbeat CPU 0 instructions: 90000003 cycles: 44388445 heartbeat IPC: 1.33316 cumulative IPC: 1.5013 (Simulation time: 0 hr 25 min 28 sec) 
Heartbeat CPU 0 instructions: 100000001 cycles: 50876182 heartbeat IPC: 1.54137 cumulative IPC: 1.50914 (Simulation time: 0 hr 27 min 1 sec) 
Finished CPU 0 instructions: 50000000 cycles: 33131361 cumulative IPC: 1.50914 (Simulation time: 0 hr 27 min 1 sec) 

ChampSim completed all CPUs

Region of Interest Statistics

CPU 0 cumulative IPC: 1.50914 instructions: 50000000 cycles: 33131361
L1D TOTAL     ACCESS:   21635859  HIT:   21565004  MISS:      70855
L1D LOAD      ACCESS:    6678233  HIT:    6651320  MISS:      26913
L1D RFO       ACCESS:    8412835  HIT:    8380773  MISS:      32062
L1D PREFETCH  ACCESS:    6544791  HIT:    6532911  MISS:      11880
L1D WRITEBACK ACCESS:          0  HIT:          0  MISS:          0
L1D PREFETCH  REQUESTED:    6682610  ISSUED:    6572476  USEFUL:       3328  USELESS:       8552
L1D AVERAGE MISS LATENCY: 230.103 cycles
L1I TOTAL     ACCESS:   19731887  HIT:   15566057  MISS:    4165830
L1I LOAD      ACCESS:    9807113  HIT:    9782194  MISS:      24919
L1I RFO       ACCESS:          0  HIT:          0  MISS:          0
L1I PREFETCH  ACCESS:    9924774  HIT:    5783863  MISS:    4140911
L1I WRITEBACK ACCESS:          0  HIT:          0  MISS:          0
L1I PREFETCH  REQUESTED:   10472790  ISSUED:   10213606  USEFUL:    2734347  USELESS:    1406532
L1I AVERAGE MISS LATENCY: 14.8913 cycles
L2C TOTAL     ACCESS:    5860996  HIT:    5789288  MISS:      71708
L2C LOAD      ACCESS:      46147  HIT:      26957  MISS:      19190
L2C RFO       ACCESS:      32017  HIT:       1094  MISS:      30923
L2C PREFETCH  ACCESS:    5744466  HIT:    5722886  MISS:      21580
L2C WRITEBACK ACCESS:      38366  HIT:      38351  MISS:         15
L2C PREFETCH  REQUESTED:    3949921  ISSUED:    3948837  USEFUL:       1598  USELESS:      19743
L2C AVERAGE MISS LATENCY: 259.431 cycles
LLC TOTAL     ACCESS:     900720  HIT:     835530  MISS:      65190
LLC LOAD      ACCESS:      18006  HIT:       5466  MISS:      12540
LLC RFO       ACCESS:      30923  HIT:       4524  MISS:      26399
LLC PREFETCH  ACCESS:     816962  HIT:     790796  MISS:      26166
LLC WRITEBACK ACCESS:      34829  HIT:      34744  MISS:         85
LLC PREFETCH  REQUESTED:          0  ISSUED:          0  USEFUL:       4663  USELESS:      22829
LLC AVERAGE MISS LATENCY: 313.741 cycles
Major fault: 0 Minor fault: 1917
CPU 0 L1D next line prefetcher final stats

DRAM Statistics
 CHANNEL 0
 RQ ROW_BUFFER_HIT:      28530  ROW_BUFFER_MISS:      36573
 DBUS_CONGESTED:      65633
 WQ ROW_BUFFER_HIT:       8320  ROW_BUFFER_MISS:      23851  FULL:          0

 AVG_CONGESTED_CYCLE: 6

CPU 0 Branch Prediction Accuracy: 99.7719% MPKI: 0.38824 Average ROB Occupancy at Mispredict: 155.32

Branch types
NOT_BRANCH: 41489011 82.978%
BRANCH_DIRECT_JUMP: 449417 0.898834%
BRANCH_INDIRECT: 2330 0.00466%
BRANCH_CONDITIONAL: 5470016 10.94%
BRANCH_DIRECT_CALL: 1172187 2.34437%
BRANCH_INDIRECT_CALL: 122383 0.244766%
BRANCH_RETURN: 1294554 2.58911%
BRANCH_OTHER: 0 0%

