Initialize SIGNATURE TABLE
ST_SET: 1
ST_WAY: 256
ST_TAG_BIT: 16
ST_TAG_MASK: ffff

Initialize PATTERN TABLE
PT_SET: 512
PT_WAY: 4
SIG_DELTA_BIT: 7
C_SIG_BIT: 4
C_DELTA_BIT: 4

Initialize PREFETCH FILTER
FILTER_SET: 1024

*** ChampSim Multicore Out-of-Order Simulator ***

Warmup Instructions: 50000000
Simulation Instructions: 50000000
Number of CPUs: 1
LLC sets: 2048
LLC ways: 16
Off-chip DRAM Size: 4096 MB Channels: 1 Width: 64-bit Data Rate: 3200 MT/s

CPU 0 runs /home/ChampSim-master//dpc3_traces/server_009.champsimtrace.xz
CPU 0 EPI prefetcher
CPU 0 L1D next line prefetcher
Heartbeat CPU 0 instructions: 10000003 cycles: 3199521 heartbeat IPC: 3.12547 cumulative IPC: 3.12547 (Simulation time: 0 hr 2 min 53 sec) 
Heartbeat CPU 0 instructions: 20000001 cycles: 6391622 heartbeat IPC: 3.13273 cumulative IPC: 3.1291 (Simulation time: 0 hr 6 min 22 sec) 
Heartbeat CPU 0 instructions: 30000002 cycles: 9598533 heartbeat IPC: 3.11827 cumulative IPC: 3.12548 (Simulation time: 0 hr 9 min 48 sec) 
Heartbeat CPU 0 instructions: 40000003 cycles: 12801768 heartbeat IPC: 3.12184 cumulative IPC: 3.12457 (Simulation time: 0 hr 12 min 48 sec) 
Heartbeat CPU 0 instructions: 50000000 cycles: 16061529 heartbeat IPC: 3.06771 cumulative IPC: 3.11303 (Simulation time: 0 hr 15 min 50 sec) 

Warmup complete CPU 0 instructions: 50000004 cycles: 16061530 (Simulation time: 0 hr 15 min 50 sec) 

Heartbeat CPU 0 instructions: 60000002 cycles: 31673747 heartbeat IPC: 0.640524 cumulative IPC: 0.640524 (Simulation time: 0 hr 19 min 16 sec) 
Heartbeat CPU 0 instructions: 70000003 cycles: 52750586 heartbeat IPC: 0.474454 cumulative IPC: 0.545122 (Simulation time: 0 hr 23 min 25 sec) 
Heartbeat CPU 0 instructions: 80000000 cycles: 59776919 heartbeat IPC: 1.42322 cumulative IPC: 0.686257 (Simulation time: 0 hr 25 min 52 sec) 
Heartbeat CPU 0 instructions: 90000001 cycles: 66958218 heartbeat IPC: 1.39251 cumulative IPC: 0.785906 (Simulation time: 0 hr 27 min 59 sec) 
Heartbeat CPU 0 instructions: 100000003 cycles: 73995907 heartbeat IPC: 1.42092 cumulative IPC: 0.863045 (Simulation time: 0 hr 29 min 25 sec) 
Finished CPU 0 instructions: 50000003 cycles: 57934378 cumulative IPC: 0.863046 (Simulation time: 0 hr 29 min 25 sec) 

ChampSim completed all CPUs

Region of Interest Statistics

CPU 0 cumulative IPC: 0.863046 instructions: 50000003 cycles: 57934378
L1D TOTAL     ACCESS:   21600774  HIT:   17021279  MISS:    4579495
L1D LOAD      ACCESS:    8616863  HIT:    6336439  MISS:    2280424
L1D RFO       ACCESS:    4579631  HIT:    4475215  MISS:     104416
L1D PREFETCH  ACCESS:    8404280  HIT:    6209625  MISS:    2194655
L1D WRITEBACK ACCESS:          0  HIT:          0  MISS:          0
L1D PREFETCH  REQUESTED:    8649195  ISSUED:    8552068  USEFUL:     106182  USELESS:    2088472
L1D AVERAGE MISS LATENCY: 20.2424 cycles
L1I TOTAL     ACCESS:   37709506  HIT:   36280181  MISS:    1429325
L1I LOAD      ACCESS:   10768594  HIT:   10709067  MISS:      59527
L1I RFO       ACCESS:          0  HIT:          0  MISS:          0
L1I PREFETCH  ACCESS:   26940912  HIT:   25571114  MISS:    1369798
L1I WRITEBACK ACCESS:          0  HIT:          0  MISS:          0
L1I PREFETCH  REQUESTED:   36222182  ISSUED:   36222182  USEFUL:    1029401  USELESS:     340476
L1I AVERAGE MISS LATENCY: 33.0145 cycles
L2C TOTAL     ACCESS:    7617551  HIT:    6588977  MISS:    1028574
L2C LOAD      ACCESS:    2295367  HIT:    2079217  MISS:     216150
L2C RFO       ACCESS:     103469  HIT:      64122  MISS:      39347
L2C PREFETCH  ACCESS:    4961856  HIT:    4189850  MISS:     772006
L2C WRITEBACK ACCESS:     256859  HIT:     255788  MISS:       1071
L2C PREFETCH  REQUESTED:    7715392  ISSUED:    7709703  USEFUL:      22365  USELESS:     748242
L2C AVERAGE MISS LATENCY: 47.4902 cycles
LLC TOTAL     ACCESS:    2429869  HIT:    2298436  MISS:     131433
LLC LOAD      ACCESS:     215700  HIT:     196352  MISS:      19348
LLC RFO       ACCESS:      39341  HIT:      30661  MISS:       8680
LLC PREFETCH  ACCESS:    2039610  HIT:    1936455  MISS:     103155
LLC WRITEBACK ACCESS:     135218  HIT:     134968  MISS:        250
LLC PREFETCH  REQUESTED:          0  ISSUED:          0  USEFUL:      12845  USELESS:      88695
LLC AVERAGE MISS LATENCY: 173.023 cycles
Major fault: 0 Minor fault: 6360
CPU 0 L1I EPI prefetcher final stats
CPU 0 L1D next line prefetcher final stats

DRAM Statistics
 CHANNEL 0
 RQ ROW_BUFFER_HIT:      26034  ROW_BUFFER_MISS:     105132
 DBUS_CONGESTED:      59753
 WQ ROW_BUFFER_HIT:       8819  ROW_BUFFER_MISS:      37732  FULL:          0

 AVG_CONGESTED_CYCLE: 5

CPU 0 Branch Prediction Accuracy: 99.4713% MPKI: 1.11484 Average ROB Occupancy at Mispredict: 119.21

Branch types
NOT_BRANCH: 39456615 78.9132%
BRANCH_DIRECT_JUMP: 445350 0.8907%
BRANCH_INDIRECT: 131149 0.262298%
BRANCH_CONDITIONAL: 8130196 16.2604%
BRANCH_DIRECT_CALL: 732485 1.46497%
BRANCH_INDIRECT_CALL: 172369 0.344738%
BRANCH_RETURN: 931558 1.86312%
BRANCH_OTHER: 0 0%

