Initialize SIGNATURE TABLE
ST_SET: 1
ST_WAY: 256
ST_TAG_BIT: 16
ST_TAG_MASK: ffff

Initialize PATTERN TABLE
PT_SET: 512
PT_WAY: 4
SIG_DELTA_BIT: 7
C_SIG_BIT: 4
C_DELTA_BIT: 4

Initialize PREFETCH FILTER
FILTER_SET: 1024

*** ChampSim Multicore Out-of-Order Simulator ***

Warmup Instructions: 50000000
Simulation Instructions: 50000000
Number of CPUs: 1
LLC sets: 2048
LLC ways: 16
Off-chip DRAM Size: 4096 MB Channels: 1 Width: 64-bit Data Rate: 3200 MT/s

CPU 0 runs /home/ChampSim-master//dpc3_traces/server_039.champsimtrace.xz
CPU 0 EPI prefetcher
CPU 0 L1D next line prefetcher
Heartbeat CPU 0 instructions: 10000003 cycles: 3452153 heartbeat IPC: 2.89674 cumulative IPC: 2.89674 (Simulation time: 0 hr 3 min 51 sec) 
Heartbeat CPU 0 instructions: 20000002 cycles: 6897722 heartbeat IPC: 2.90228 cumulative IPC: 2.89951 (Simulation time: 0 hr 7 min 22 sec) 
Heartbeat CPU 0 instructions: 30000001 cycles: 10344964 heartbeat IPC: 2.90087 cumulative IPC: 2.89996 (Simulation time: 0 hr 10 min 38 sec) 
Heartbeat CPU 0 instructions: 40000002 cycles: 13787663 heartbeat IPC: 2.9047 cumulative IPC: 2.90114 (Simulation time: 0 hr 13 min 56 sec) 
Heartbeat CPU 0 instructions: 50000001 cycles: 17229719 heartbeat IPC: 2.90524 cumulative IPC: 2.90196 (Simulation time: 0 hr 17 min 35 sec) 

Warmup complete CPU 0 instructions: 50000001 cycles: 17229719 (Simulation time: 0 hr 17 min 35 sec) 

Heartbeat CPU 0 instructions: 60000000 cycles: 24299729 heartbeat IPC: 1.41443 cumulative IPC: 1.41443 (Simulation time: 0 hr 20 min 31 sec) 
Heartbeat CPU 0 instructions: 70000000 cycles: 31359993 heartbeat IPC: 1.41638 cumulative IPC: 1.4154 (Simulation time: 0 hr 23 min 16 sec) 
Heartbeat CPU 0 instructions: 80000000 cycles: 38425273 heartbeat IPC: 1.41537 cumulative IPC: 1.41539 (Simulation time: 0 hr 25 min 20 sec) 
Heartbeat CPU 0 instructions: 90000001 cycles: 45492805 heartbeat IPC: 1.41492 cumulative IPC: 1.41527 (Simulation time: 0 hr 26 min 44 sec) 
Heartbeat CPU 0 instructions: 100000002 cycles: 52557468 heartbeat IPC: 1.4155 cumulative IPC: 1.41532 (Simulation time: 0 hr 27 min 28 sec) 
Finished CPU 0 instructions: 50000001 cycles: 35327749 cumulative IPC: 1.41532 (Simulation time: 0 hr 27 min 28 sec) 

ChampSim completed all CPUs

Region of Interest Statistics

CPU 0 cumulative IPC: 1.41532 instructions: 50000001 cycles: 35327749
L1D TOTAL     ACCESS:   21820640  HIT:   21325367  MISS:     495273
L1D LOAD      ACCESS:    7414972  HIT:    7194832  MISS:     220140
L1D RFO       ACCESS:    7129567  HIT:    7062476  MISS:      67091
L1D PREFETCH  ACCESS:    7276101  HIT:    7068059  MISS:     208042
L1D WRITEBACK ACCESS:          0  HIT:          0  MISS:          0
L1D PREFETCH  REQUESTED:    7434955  ISSUED:    7350431  USEFUL:      51820  USELESS:     156226
L1D AVERAGE MISS LATENCY: 15.0058 cycles
L1I TOTAL     ACCESS:   23241046  HIT:   18969888  MISS:    4271158
L1I LOAD      ACCESS:    9188890  HIT:    8120814  MISS:    1068076
L1I RFO       ACCESS:          0  HIT:          0  MISS:          0
L1I PREFETCH  ACCESS:   14052156  HIT:   10849074  MISS:    3203082
L1I WRITEBACK ACCESS:          0  HIT:          0  MISS:          0
L1I PREFETCH  REQUESTED:   14763915  ISSUED:   14763915  USEFUL:    2960099  USELESS:     242979
L1I AVERAGE MISS LATENCY: 14.1939 cycles
L2C TOTAL     ACCESS:    7330091  HIT:    7330019  MISS:         72
L2C LOAD      ACCESS:    1206490  HIT:    1206487  MISS:          3
L2C RFO       ACCESS:      66936  HIT:      66936  MISS:          0
L2C PREFETCH  ACCESS:    5876626  HIT:    5876557  MISS:         69
L2C WRITEBACK ACCESS:     180039  HIT:     180039  MISS:          0
L2C PREFETCH  REQUESTED:    4552405  ISSUED:    4552040  USEFUL:          1  USELESS:          0
L2C AVERAGE MISS LATENCY: 55.5694 cycles
LLC TOTAL     ACCESS:     887657  HIT:     887309  MISS:        348
LLC LOAD      ACCESS:          3  HIT:          2  MISS:          1
LLC RFO       ACCESS:          0  HIT:          0  MISS:          0
LLC PREFETCH  ACCESS:     887654  HIT:     887307  MISS:        347
LLC WRITEBACK ACCESS:          0  HIT:          0  MISS:          0
LLC PREFETCH  REQUESTED:          0  ISSUED:          0  USEFUL:          2  USELESS:          0
LLC AVERAGE MISS LATENCY: 176.816 cycles
Major fault: 0 Minor fault: 356
CPU 0 L1I EPI prefetcher final stats
CPU 0 L1D next line prefetcher final stats

DRAM Statistics
 CHANNEL 0
 RQ ROW_BUFFER_HIT:         50  ROW_BUFFER_MISS:        298
 DBUS_CONGESTED:         38
 WQ ROW_BUFFER_HIT:          0  ROW_BUFFER_MISS:          0  FULL:          0

 AVG_CONGESTED_CYCLE: 5

CPU 0 Branch Prediction Accuracy: 99.9091% MPKI: 0.1547 Average ROB Occupancy at Mispredict: 59.2768

Branch types
NOT_BRANCH: 41494795 82.9896%
BRANCH_DIRECT_JUMP: 491305 0.98261%
BRANCH_INDIRECT: 0 0%
BRANCH_CONDITIONAL: 5595231 11.1905%
BRANCH_DIRECT_CALL: 1028406 2.05681%
BRANCH_INDIRECT_CALL: 180755 0.36151%
BRANCH_RETURN: 1209171 2.41834%
BRANCH_OTHER: 0 0%

