Initialize SIGNATURE TABLE
ST_SET: 1
ST_WAY: 256
ST_TAG_BIT: 16
ST_TAG_MASK: ffff

Initialize PATTERN TABLE
PT_SET: 512
PT_WAY: 4
SIG_DELTA_BIT: 7
C_SIG_BIT: 4
C_DELTA_BIT: 4

Initialize PREFETCH FILTER
FILTER_SET: 1024

*** ChampSim Multicore Out-of-Order Simulator ***

Warmup Instructions: 50000000
Simulation Instructions: 50000000
Number of CPUs: 1
LLC sets: 2048
LLC ways: 16
Off-chip DRAM Size: 4096 MB Channels: 1 Width: 64-bit Data Rate: 3200 MT/s

CPU 0 runs /home/ChampSim-master//dpc3_traces/server_002.champsimtrace.xz
L1I D-JOLT instruction prefetcher has been constructed!
CPU 0 L1D next line prefetcher
Heartbeat CPU 0 instructions: 10000000 cycles: 3581229 heartbeat IPC: 2.79234 cumulative IPC: 2.79234 (Simulation time: 0 hr 2 min 30 sec) 
Heartbeat CPU 0 instructions: 20000002 cycles: 7170058 heartbeat IPC: 2.78642 cumulative IPC: 2.78938 (Simulation time: 0 hr 5 min 25 sec) 
Heartbeat CPU 0 instructions: 30000000 cycles: 10710798 heartbeat IPC: 2.82427 cumulative IPC: 2.80091 (Simulation time: 0 hr 8 min 24 sec) 
Heartbeat CPU 0 instructions: 40000000 cycles: 14261043 heartbeat IPC: 2.81671 cumulative IPC: 2.80484 (Simulation time: 0 hr 11 min 29 sec) 
Heartbeat CPU 0 instructions: 50000001 cycles: 17808814 heartbeat IPC: 2.81867 cumulative IPC: 2.8076 (Simulation time: 0 hr 14 min 47 sec) 

Warmup complete CPU 0 instructions: 50000001 cycles: 17808814 (Simulation time: 0 hr 14 min 47 sec) 

Heartbeat CPU 0 instructions: 60000000 cycles: 24247652 heartbeat IPC: 1.55308 cumulative IPC: 1.55308 (Simulation time: 0 hr 17 min 59 sec) 
Heartbeat CPU 0 instructions: 70000003 cycles: 30680944 heartbeat IPC: 1.55441 cumulative IPC: 1.55374 (Simulation time: 0 hr 20 min 47 sec) 
Heartbeat CPU 0 instructions: 80000003 cycles: 37116638 heartbeat IPC: 1.55383 cumulative IPC: 1.55377 (Simulation time: 0 hr 23 min 15 sec) 
Heartbeat CPU 0 instructions: 90000002 cycles: 43550517 heartbeat IPC: 1.55427 cumulative IPC: 1.5539 (Simulation time: 0 hr 25 min 28 sec) 
Heartbeat CPU 0 instructions: 100000003 cycles: 49983596 heartbeat IPC: 1.55447 cumulative IPC: 1.55401 (Simulation time: 0 hr 26 min 44 sec) 
Finished CPU 0 instructions: 50000002 cycles: 32174782 cumulative IPC: 1.55401 (Simulation time: 0 hr 26 min 44 sec) 

ChampSim completed all CPUs

Region of Interest Statistics

CPU 0 cumulative IPC: 1.55401 instructions: 50000002 cycles: 32174782
L1D TOTAL     ACCESS:   21522543  HIT:   21521734  MISS:        809
L1D LOAD      ACCESS:    6600913  HIT:    6600537  MISS:        376
L1D RFO       ACCESS:    8433018  HIT:    8432905  MISS:        113
L1D PREFETCH  ACCESS:    6488612  HIT:    6488292  MISS:        320
L1D WRITEBACK ACCESS:          0  HIT:          0  MISS:          0
L1D PREFETCH  REQUESTED:    6600965  ISSUED:    6496001  USEFUL:         90  USELESS:        231
L1D AVERAGE MISS LATENCY: 39.0185 cycles
L1I TOTAL     ACCESS:   19721005  HIT:   16141454  MISS:    3579551
L1I LOAD      ACCESS:    9912507  HIT:    9868039  MISS:      44468
L1I RFO       ACCESS:          0  HIT:          0  MISS:          0
L1I PREFETCH  ACCESS:    9808498  HIT:    6273415  MISS:    3535083
L1I WRITEBACK ACCESS:          0  HIT:          0  MISS:          0
L1I PREFETCH  REQUESTED:   10647775  ISSUED:   10057217  USEFUL:    2229651  USELESS:    1305429
L1I AVERAGE MISS LATENCY: 14.3686 cycles
L2C TOTAL     ACCESS:    4967726  HIT:    4967380  MISS:        346
L2C LOAD      ACCESS:      43049  HIT:      42977  MISS:         72
L2C RFO       ACCESS:        113  HIT:        111  MISS:          2
L2C PREFETCH  ACCESS:    4924228  HIT:    4923957  MISS:        271
L2C WRITEBACK ACCESS:        336  HIT:        335  MISS:          1
L2C PREFETCH  REQUESTED:    3024255  ISSUED:    3022497  USEFUL:        107  USELESS:        135
L2C AVERAGE MISS LATENCY: 143.815 cycles
LLC TOTAL     ACCESS:     563633  HIT:     562819  MISS:        814
LLC LOAD      ACCESS:         72  HIT:         57  MISS:         15
LLC RFO       ACCESS:          2  HIT:          0  MISS:          2
LLC PREFETCH  ACCESS:     563449  HIT:     562654  MISS:        795
LLC WRITEBACK ACCESS:        110  HIT:        108  MISS:          2
LLC PREFETCH  REQUESTED:          0  ISSUED:          0  USEFUL:         12  USELESS:        192
LLC AVERAGE MISS LATENCY: 443.448 cycles
Major fault: 0 Minor fault: 1872
CPU 0 L1D next line prefetcher final stats

DRAM Statistics
 CHANNEL 0
 RQ ROW_BUFFER_HIT:        159  ROW_BUFFER_MISS:        653
 DBUS_CONGESTED:        589
 WQ ROW_BUFFER_HIT:         73  ROW_BUFFER_MISS:        495  FULL:          0

 AVG_CONGESTED_CYCLE: 6

CPU 0 Branch Prediction Accuracy: 99.8789% MPKI: 0.20388 Average ROB Occupancy at Mispredict: 268.768

Branch types
NOT_BRANCH: 41580695 83.1614%
BRANCH_DIRECT_JUMP: 461630 0.92326%
BRANCH_INDIRECT: 0 0%
BRANCH_CONDITIONAL: 5376437 10.7529%
BRANCH_DIRECT_CALL: 1175775 2.35155%
BRANCH_INDIRECT_CALL: 114840 0.22968%
BRANCH_RETURN: 1290625 2.58125%
BRANCH_OTHER: 0 0%

