Initialize SIGNATURE TABLE
ST_SET: 1
ST_WAY: 256
ST_TAG_BIT: 16
ST_TAG_MASK: ffff

Initialize PATTERN TABLE
PT_SET: 512
PT_WAY: 4
SIG_DELTA_BIT: 7
C_SIG_BIT: 4
C_DELTA_BIT: 4

Initialize PREFETCH FILTER
FILTER_SET: 1024

*** ChampSim Multicore Out-of-Order Simulator ***

Warmup Instructions: 50000000
Simulation Instructions: 50000000
Number of CPUs: 1
LLC sets: 2048
LLC ways: 16
Off-chip DRAM Size: 4096 MB Channels: 1 Width: 64-bit Data Rate: 3200 MT/s

CPU 0 runs /home/ChampSim-master//dpc3_traces/server_037.champsimtrace.xz
L1I D-JOLT instruction prefetcher has been constructed!
CPU 0 L1D next line prefetcher
Heartbeat CPU 0 instructions: 10000001 cycles: 3319045 heartbeat IPC: 3.01292 cumulative IPC: 3.01292 (Simulation time: 0 hr 3 min 7 sec) 
Heartbeat CPU 0 instructions: 20000002 cycles: 6635563 heartbeat IPC: 3.01521 cumulative IPC: 3.01406 (Simulation time: 0 hr 5 min 59 sec) 
Heartbeat CPU 0 instructions: 30000003 cycles: 10000053 heartbeat IPC: 2.97222 cumulative IPC: 2.99998 (Simulation time: 0 hr 8 min 49 sec) 
Heartbeat CPU 0 instructions: 40000000 cycles: 13318433 heartbeat IPC: 3.01352 cumulative IPC: 3.00336 (Simulation time: 0 hr 11 min 45 sec) 
Heartbeat CPU 0 instructions: 50000003 cycles: 16636958 heartbeat IPC: 3.01339 cumulative IPC: 3.00536 (Simulation time: 0 hr 14 min 42 sec) 

Warmup complete CPU 0 instructions: 50000003 cycles: 16636958 (Simulation time: 0 hr 14 min 42 sec) 

Heartbeat CPU 0 instructions: 60000001 cycles: 23035972 heartbeat IPC: 1.56274 cumulative IPC: 1.56274 (Simulation time: 0 hr 17 min 29 sec) 
Heartbeat CPU 0 instructions: 70000000 cycles: 29517895 heartbeat IPC: 1.54275 cumulative IPC: 1.55268 (Simulation time: 0 hr 20 min 39 sec) 
Heartbeat CPU 0 instructions: 80000000 cycles: 35906956 heartbeat IPC: 1.56518 cumulative IPC: 1.55682 (Simulation time: 0 hr 23 min 24 sec) 
Heartbeat CPU 0 instructions: 90000002 cycles: 42319919 heartbeat IPC: 1.55934 cumulative IPC: 1.55745 (Simulation time: 0 hr 25 min 28 sec) 
*** Reached end of trace for Core: 0 Repeating trace: /home/ChampSim-master//dpc3_traces/server_037.champsimtrace.xz
Heartbeat CPU 0 instructions: 100000000 cycles: 48723006 heartbeat IPC: 1.56175 cumulative IPC: 1.55831 (Simulation time: 0 hr 26 min 33 sec) 
Finished CPU 0 instructions: 50000001 cycles: 32086049 cumulative IPC: 1.55831 (Simulation time: 0 hr 26 min 33 sec) 

ChampSim completed all CPUs

Region of Interest Statistics

CPU 0 cumulative IPC: 1.55831 instructions: 50000001 cycles: 32086049
L1D TOTAL     ACCESS:   18685350  HIT:   17707461  MISS:     977889
L1D LOAD      ACCESS:    6358585  HIT:    5867498  MISS:     491087
L1D RFO       ACCESS:    6205131  HIT:    6141080  MISS:      64051
L1D PREFETCH  ACCESS:    6121634  HIT:    5698883  MISS:     422751
L1D WRITEBACK ACCESS:          0  HIT:          0  MISS:          0
L1D PREFETCH  REQUESTED:    6396006  ISSUED:    6242966  USEFUL:     117684  USELESS:     305071
L1D AVERAGE MISS LATENCY: 29.2257 cycles
L1I TOTAL     ACCESS:   20234579  HIT:   15214276  MISS:    5020303
L1I LOAD      ACCESS:    9466984  HIT:    9416894  MISS:      50090
L1I RFO       ACCESS:          0  HIT:          0  MISS:          0
L1I PREFETCH  ACCESS:   10767595  HIT:    5797382  MISS:    4970213
L1I WRITEBACK ACCESS:          0  HIT:          0  MISS:          0
L1I PREFETCH  REQUESTED:   11145363  ISSUED:   11142465  USEFUL:    4095269  USELESS:     874950
L1I AVERAGE MISS LATENCY: 14.7859 cycles
L2C TOTAL     ACCESS:    8811420  HIT:    8494245  MISS:     317175
L2C LOAD      ACCESS:     535831  HIT:     394420  MISS:     141411
L2C RFO       ACCESS:      63796  HIT:      35819  MISS:      27977
L2C PREFETCH  ACCESS:    7922211  HIT:    7775777  MISS:     146434
L2C WRITEBACK ACCESS:     289582  HIT:     288229  MISS:       1353
L2C PREFETCH  REQUESTED:    6676652  ISSUED:    6655184  USEFUL:       6848  USELESS:     139469
L2C AVERAGE MISS LATENCY: 44.8899 cycles
LLC TOTAL     ACCESS:    2110244  HIT:    2050855  MISS:      59389
LLC LOAD      ACCESS:     141400  HIT:     128590  MISS:      12810
LLC RFO       ACCESS:      27976  HIT:      23470  MISS:       4506
LLC PREFETCH  ACCESS:    1797425  HIT:    1755945  MISS:      41480
LLC WRITEBACK ACCESS:     143443  HIT:     142850  MISS:        593
LLC PREFETCH  REQUESTED:          0  ISSUED:          0  USEFUL:       4320  USELESS:      37025
LLC AVERAGE MISS LATENCY: 169.769 cycles
Major fault: 0 Minor fault: 5654
CPU 0 L1D next line prefetcher final stats

DRAM Statistics
 CHANNEL 0
 RQ ROW_BUFFER_HIT:      13253  ROW_BUFFER_MISS:      45543
 DBUS_CONGESTED:      23601
 WQ ROW_BUFFER_HIT:       1527  ROW_BUFFER_MISS:      10560  FULL:          0

 AVG_CONGESTED_CYCLE: 4

CPU 0 Branch Prediction Accuracy: 99.913% MPKI: 0.15656 Average ROB Occupancy at Mispredict: 228.941

Branch types
NOT_BRANCH: 41001728 82.0035%
BRANCH_DIRECT_JUMP: 541941 1.08388%
BRANCH_INDIRECT: 59716 0.119432%
BRANCH_CONDITIONAL: 5916856 11.8337%
BRANCH_DIRECT_CALL: 1005465 2.01093%
BRANCH_INDIRECT_CALL: 234433 0.468866%
BRANCH_RETURN: 1239878 2.47976%
BRANCH_OTHER: 0 0%

