Initialize SIGNATURE TABLE
ST_SET: 1
ST_WAY: 256
ST_TAG_BIT: 16
ST_TAG_MASK: ffff

Initialize PATTERN TABLE
PT_SET: 512
PT_WAY: 4
SIG_DELTA_BIT: 7
C_SIG_BIT: 4
C_DELTA_BIT: 4

Initialize PREFETCH FILTER
FILTER_SET: 1024

*** ChampSim Multicore Out-of-Order Simulator ***

Warmup Instructions: 50000000
Simulation Instructions: 50000000
Number of CPUs: 1
LLC sets: 2048
LLC ways: 16
Off-chip DRAM Size: 4096 MB Channels: 1 Width: 64-bit Data Rate: 3200 MT/s

CPU 0 runs /home/ChampSim-master//dpc3_traces/server_027.champsimtrace.xz
L1I D-JOLT instruction prefetcher has been constructed!
CPU 0 L1D next line prefetcher
Heartbeat CPU 0 instructions: 10000001 cycles: 3524775 heartbeat IPC: 2.83706 cumulative IPC: 2.83706 (Simulation time: 0 hr 3 min 16 sec) 
Heartbeat CPU 0 instructions: 20000001 cycles: 7054760 heartbeat IPC: 2.83287 cumulative IPC: 2.83497 (Simulation time: 0 hr 6 min 19 sec) 
Heartbeat CPU 0 instructions: 30000002 cycles: 10579462 heartbeat IPC: 2.83712 cumulative IPC: 2.83568 (Simulation time: 0 hr 9 min 23 sec) 
Heartbeat CPU 0 instructions: 40000000 cycles: 14109722 heartbeat IPC: 2.83265 cumulative IPC: 2.83492 (Simulation time: 0 hr 12 min 8 sec) 
Heartbeat CPU 0 instructions: 50000001 cycles: 17633957 heartbeat IPC: 2.8375 cumulative IPC: 2.83544 (Simulation time: 0 hr 14 min 50 sec) 

Warmup complete CPU 0 instructions: 50000001 cycles: 17633957 (Simulation time: 0 hr 14 min 50 sec) 

Heartbeat CPU 0 instructions: 60000002 cycles: 24493357 heartbeat IPC: 1.45785 cumulative IPC: 1.45785 (Simulation time: 0 hr 17 min 29 sec) 
Heartbeat CPU 0 instructions: 70000003 cycles: 31313364 heartbeat IPC: 1.46627 cumulative IPC: 1.46205 (Simulation time: 0 hr 20 min 6 sec) 
Heartbeat CPU 0 instructions: 80000002 cycles: 38142645 heartbeat IPC: 1.46428 cumulative IPC: 1.46279 (Simulation time: 0 hr 22 min 32 sec) 
Heartbeat CPU 0 instructions: 90000001 cycles: 45051416 heartbeat IPC: 1.44744 cumulative IPC: 1.45892 (Simulation time: 0 hr 24 min 53 sec) 
Heartbeat CPU 0 instructions: 100000002 cycles: 51843465 heartbeat IPC: 1.47231 cumulative IPC: 1.46158 (Simulation time: 0 hr 26 min 17 sec) 
Finished CPU 0 instructions: 50000001 cycles: 34209508 cumulative IPC: 1.46158 (Simulation time: 0 hr 26 min 17 sec) 

ChampSim completed all CPUs

Region of Interest Statistics

CPU 0 cumulative IPC: 1.46158 instructions: 50000001 cycles: 34209508
L1D TOTAL     ACCESS:   19869198  HIT:   18267499  MISS:    1601699
L1D LOAD      ACCESS:    6936040  HIT:    6243614  MISS:     692426
L1D RFO       ACCESS:    6286357  HIT:    6001303  MISS:     285054
L1D PREFETCH  ACCESS:    6646801  HIT:    6022582  MISS:     624219
L1D WRITEBACK ACCESS:          0  HIT:          0  MISS:          0
L1D PREFETCH  REQUESTED:    6981005  ISSUED:    6853842  USEFUL:     149232  USELESS:     474998
L1D AVERAGE MISS LATENCY: 24.1633 cycles
L1I TOTAL     ACCESS:   15961081  HIT:   12709271  MISS:    3251810
L1I LOAD      ACCESS:    9496668  HIT:    9444649  MISS:      52019
L1I RFO       ACCESS:          0  HIT:          0  MISS:          0
L1I PREFETCH  ACCESS:    6464413  HIT:    3264622  MISS:    3199791
L1I WRITEBACK ACCESS:          0  HIT:          0  MISS:          0
L1I PREFETCH  REQUESTED:    6824961  ISSUED:    6763517  USEFUL:    2755326  USELESS:     444495
L1I AVERAGE MISS LATENCY: 20.2885 cycles
L2C TOTAL     ACCESS:    6672899  HIT:    5729330  MISS:     943569
L2C LOAD      ACCESS:     703324  HIT:     554696  MISS:     148628
L2C RFO       ACCESS:     283558  HIT:     192953  MISS:      90605
L2C PREFETCH  ACCESS:    5126812  HIT:    4427903  MISS:     698909
L2C WRITEBACK ACCESS:     559205  HIT:     553778  MISS:       5427
L2C PREFETCH  REQUESTED:    4430400  ISSUED:    4426099  USEFUL:      10998  USELESS:     687711
L2C AVERAGE MISS LATENCY: 37.0523 cycles
LLC TOTAL     ACCESS:    2357020  HIT:    2324177  MISS:      32843
LLC LOAD      ACCESS:     148422  HIT:     144935  MISS:       3487
LLC RFO       ACCESS:      90604  HIT:      76714  MISS:      13890
LLC PREFETCH  ACCESS:    1956552  HIT:    1941258  MISS:      15294
LLC WRITEBACK ACCESS:     161442  HIT:     161270  MISS:        172
LLC PREFETCH  REQUESTED:          0  ISSUED:          0  USEFUL:       1335  USELESS:      13724
LLC AVERAGE MISS LATENCY: 184.387 cycles
Major fault: 0 Minor fault: 2483
CPU 0 L1D next line prefetcher final stats

DRAM Statistics
 CHANNEL 0
 RQ ROW_BUFFER_HIT:      10823  ROW_BUFFER_MISS:      21847
 DBUS_CONGESTED:      22255
 WQ ROW_BUFFER_HIT:       1631  ROW_BUFFER_MISS:      14382  FULL:          0

 AVG_CONGESTED_CYCLE: 6

CPU 0 Branch Prediction Accuracy: 99.8082% MPKI: 0.35064 Average ROB Occupancy at Mispredict: 185.839

Branch types
NOT_BRANCH: 40857513 81.715%
BRANCH_DIRECT_JUMP: 526635 1.05327%
BRANCH_INDIRECT: 205902 0.411804%
BRANCH_CONDITIONAL: 6184050 12.3681%
BRANCH_DIRECT_CALL: 938468 1.87694%
BRANCH_INDIRECT_CALL: 174486 0.348972%
BRANCH_RETURN: 1112959 2.22592%
BRANCH_OTHER: 0 0%

