Initialize SIGNATURE TABLE
ST_SET: 1
ST_WAY: 256
ST_TAG_BIT: 16
ST_TAG_MASK: ffff

Initialize PATTERN TABLE
PT_SET: 512
PT_WAY: 4
SIG_DELTA_BIT: 7
C_SIG_BIT: 4
C_DELTA_BIT: 4

Initialize PREFETCH FILTER
FILTER_SET: 1024

*** ChampSim Multicore Out-of-Order Simulator ***

Warmup Instructions: 50000000
Simulation Instructions: 50000000
Number of CPUs: 1
LLC sets: 2048
LLC ways: 16
Off-chip DRAM Size: 4096 MB Channels: 1 Width: 64-bit Data Rate: 3200 MT/s

CPU 0 runs /home/ChampSim-master//dpc3_traces/server_023.champsimtrace.xz
L1I D-JOLT instruction prefetcher has been constructed!
CPU 0 L1D next line prefetcher
Heartbeat CPU 0 instructions: 10000000 cycles: 3498263 heartbeat IPC: 2.85856 cumulative IPC: 2.85856 (Simulation time: 0 hr 3 min 1 sec) 
Heartbeat CPU 0 instructions: 20000000 cycles: 6996312 heartbeat IPC: 2.85874 cumulative IPC: 2.85865 (Simulation time: 0 hr 5 min 59 sec) 
Heartbeat CPU 0 instructions: 30000001 cycles: 10488002 heartbeat IPC: 2.86394 cumulative IPC: 2.86041 (Simulation time: 0 hr 9 min 1 sec) 
Heartbeat CPU 0 instructions: 40000003 cycles: 13985865 heartbeat IPC: 2.85889 cumulative IPC: 2.86003 (Simulation time: 0 hr 12 min 0 sec) 
Heartbeat CPU 0 instructions: 50000001 cycles: 17485347 heartbeat IPC: 2.85757 cumulative IPC: 2.85954 (Simulation time: 0 hr 14 min 54 sec) 

Warmup complete CPU 0 instructions: 50000001 cycles: 17485347 (Simulation time: 0 hr 14 min 54 sec) 

Heartbeat CPU 0 instructions: 60000002 cycles: 24222218 heartbeat IPC: 1.48437 cumulative IPC: 1.48437 (Simulation time: 0 hr 17 min 38 sec) 
Heartbeat CPU 0 instructions: 70000002 cycles: 31169135 heartbeat IPC: 1.43949 cumulative IPC: 1.46158 (Simulation time: 0 hr 20 min 21 sec) 
Heartbeat CPU 0 instructions: 80000000 cycles: 38023706 heartbeat IPC: 1.45888 cumulative IPC: 1.46068 (Simulation time: 0 hr 22 min 55 sec) 
Heartbeat CPU 0 instructions: 90000000 cycles: 44912879 heartbeat IPC: 1.45155 cumulative IPC: 1.45839 (Simulation time: 0 hr 25 min 4 sec) 
Heartbeat CPU 0 instructions: 100000003 cycles: 51730448 heartbeat IPC: 1.4668 cumulative IPC: 1.46006 (Simulation time: 0 hr 26 min 29 sec) 
Finished CPU 0 instructions: 50000002 cycles: 34245101 cumulative IPC: 1.46006 (Simulation time: 0 hr 26 min 29 sec) 

ChampSim completed all CPUs

Region of Interest Statistics

CPU 0 cumulative IPC: 1.46006 instructions: 50000002 cycles: 34245101
L1D TOTAL     ACCESS:   19334422  HIT:   17867628  MISS:    1466794
L1D LOAD      ACCESS:    6836217  HIT:    6175446  MISS:     660771
L1D RFO       ACCESS:    5983181  HIT:    5722168  MISS:     261013
L1D PREFETCH  ACCESS:    6515024  HIT:    5970014  MISS:     545010
L1D WRITEBACK ACCESS:          0  HIT:          0  MISS:          0
L1D PREFETCH  REQUESTED:    6887563  ISSUED:    6765729  USEFUL:     130421  USELESS:     414596
L1D AVERAGE MISS LATENCY: 24.9465 cycles
L1I TOTAL     ACCESS:   15533644  HIT:   12599063  MISS:    2934581
L1I LOAD      ACCESS:    9446131  HIT:    9403587  MISS:      42544
L1I RFO       ACCESS:          0  HIT:          0  MISS:          0
L1I PREFETCH  ACCESS:    6087513  HIT:    3195476  MISS:    2892037
L1I WRITEBACK ACCESS:          0  HIT:          0  MISS:          0
L1I PREFETCH  REQUESTED:    6441566  ISSUED:    6362157  USEFUL:    2413966  USELESS:     478074
L1I AVERAGE MISS LATENCY: 19.4845 cycles
L2C TOTAL     ACCESS:    6137839  HIT:    5361757  MISS:     776082
L2C LOAD      ACCESS:     638923  HIT:     501824  MISS:     137099
L2C RFO       ACCESS:     259393  HIT:     177463  MISS:      81930
L2C PREFETCH  ACCESS:    4740257  HIT:    4187101  MISS:     553156
L2C WRITEBACK ACCESS:     499266  HIT:     495369  MISS:       3897
L2C PREFETCH  REQUESTED:    4215672  ISSUED:    4209477  USEFUL:      12905  USELESS:     540464
L2C AVERAGE MISS LATENCY: 40.392 cycles
LLC TOTAL     ACCESS:    2070667  HIT:    2021033  MISS:      49634
LLC LOAD      ACCESS:     136918  HIT:     130877  MISS:       6041
LLC RFO       ACCESS:      81925  HIT:      63983  MISS:      17942
LLC PREFETCH  ACCESS:    1709942  HIT:    1684551  MISS:      25391
LLC WRITEBACK ACCESS:     141882  HIT:     141622  MISS:        260
LLC PREFETCH  REQUESTED:          0  ISSUED:          0  USEFUL:       2328  USELESS:      23220
LLC AVERAGE MISS LATENCY: 183.105 cycles
Major fault: 0 Minor fault: 2776
CPU 0 L1D next line prefetcher final stats

DRAM Statistics
 CHANNEL 0
 RQ ROW_BUFFER_HIT:      15024  ROW_BUFFER_MISS:      34339
 DBUS_CONGESTED:      30961
 WQ ROW_BUFFER_HIT:       2377  ROW_BUFFER_MISS:      18930  FULL:          0

 AVG_CONGESTED_CYCLE: 6

CPU 0 Branch Prediction Accuracy: 99.6798% MPKI: 0.58608 Average ROB Occupancy at Mispredict: 147.602

Branch types
NOT_BRANCH: 40848322 81.6966%
BRANCH_DIRECT_JUMP: 548372 1.09674%
BRANCH_INDIRECT: 189802 0.379604%
BRANCH_CONDITIONAL: 6372772 12.7455%
BRANCH_DIRECT_CALL: 862207 1.72441%
BRANCH_INDIRECT_CALL: 158149 0.316298%
BRANCH_RETURN: 1020345 2.04069%
BRANCH_OTHER: 0 0%

