Initialize SIGNATURE TABLE
ST_SET: 1
ST_WAY: 256
ST_TAG_BIT: 16
ST_TAG_MASK: ffff

Initialize PATTERN TABLE
PT_SET: 512
PT_WAY: 4
SIG_DELTA_BIT: 7
C_SIG_BIT: 4
C_DELTA_BIT: 4

Initialize PREFETCH FILTER
FILTER_SET: 1024

*** ChampSim Multicore Out-of-Order Simulator ***

Warmup Instructions: 50000000
Simulation Instructions: 50000000
Number of CPUs: 1
LLC sets: 2048
LLC ways: 16
Off-chip DRAM Size: 4096 MB Channels: 1 Width: 64-bit Data Rate: 3200 MT/s

CPU 0 runs /home/ChampSim-master//dpc3_traces/server_039.champsimtrace.xz
L1I D-JOLT instruction prefetcher has been constructed!
CPU 0 L1D next line prefetcher
Heartbeat CPU 0 instructions: 10000003 cycles: 3451549 heartbeat IPC: 2.89725 cumulative IPC: 2.89725 (Simulation time: 0 hr 3 min 27 sec) 
Heartbeat CPU 0 instructions: 20000002 cycles: 6896116 heartbeat IPC: 2.90312 cumulative IPC: 2.90018 (Simulation time: 0 hr 6 min 32 sec) 
Heartbeat CPU 0 instructions: 30000001 cycles: 10342511 heartbeat IPC: 2.90158 cumulative IPC: 2.90065 (Simulation time: 0 hr 9 min 15 sec) 
Heartbeat CPU 0 instructions: 40000002 cycles: 13784301 heartbeat IPC: 2.90547 cumulative IPC: 2.90185 (Simulation time: 0 hr 12 min 4 sec) 
Heartbeat CPU 0 instructions: 50000001 cycles: 17225461 heartbeat IPC: 2.906 cumulative IPC: 2.90268 (Simulation time: 0 hr 14 min 58 sec) 

Warmup complete CPU 0 instructions: 50000001 cycles: 17225461 (Simulation time: 0 hr 14 min 58 sec) 

Heartbeat CPU 0 instructions: 60000000 cycles: 22999149 heartbeat IPC: 1.73199 cumulative IPC: 1.73199 (Simulation time: 0 hr 17 min 28 sec) 
Heartbeat CPU 0 instructions: 70000000 cycles: 28770026 heartbeat IPC: 1.73284 cumulative IPC: 1.73242 (Simulation time: 0 hr 19 min 56 sec) 
Heartbeat CPU 0 instructions: 80000000 cycles: 34536908 heartbeat IPC: 1.73404 cumulative IPC: 1.73296 (Simulation time: 0 hr 22 min 26 sec) 
Heartbeat CPU 0 instructions: 90000001 cycles: 40312947 heartbeat IPC: 1.73129 cumulative IPC: 1.73254 (Simulation time: 0 hr 24 min 41 sec) 
Heartbeat CPU 0 instructions: 100000002 cycles: 46097345 heartbeat IPC: 1.72879 cumulative IPC: 1.73179 (Simulation time: 0 hr 26 min 6 sec) 
Finished CPU 0 instructions: 50000001 cycles: 28871884 cumulative IPC: 1.73179 (Simulation time: 0 hr 26 min 6 sec) 

ChampSim completed all CPUs

Region of Interest Statistics

CPU 0 cumulative IPC: 1.73179 instructions: 50000001 cycles: 28871884
L1D TOTAL     ACCESS:   19888407  HIT:   19393713  MISS:     494694
L1D LOAD      ACCESS:    6493377  HIT:    6271786  MISS:     221591
L1D RFO       ACCESS:    7089104  HIT:    7022160  MISS:      66944
L1D PREFETCH  ACCESS:    6305926  HIT:    6099767  MISS:     206159
L1D WRITEBACK ACCESS:          0  HIT:          0  MISS:          0
L1D PREFETCH  REQUESTED:    6509132  ISSUED:    6375844  USEFUL:      50004  USELESS:     156159
L1D AVERAGE MISS LATENCY: 15.0819 cycles
L1I TOTAL     ACCESS:   19521771  HIT:   14200182  MISS:    5321589
L1I LOAD      ACCESS:    9325699  HIT:    9270743  MISS:      54956
L1I RFO       ACCESS:          0  HIT:          0  MISS:          0
L1I PREFETCH  ACCESS:   10196072  HIT:    4929439  MISS:    5266633
L1I WRITEBACK ACCESS:          0  HIT:          0  MISS:          0
L1I PREFETCH  REQUESTED:   10991546  ISSUED:   10618802  USEFUL:    4203634  USELESS:    1063011
L1I AVERAGE MISS LATENCY: 14.5953 cycles
L2C TOTAL     ACCESS:    8328272  HIT:    8328197  MISS:         75
L2C LOAD      ACCESS:     266653  HIT:     266647  MISS:          6
L2C RFO       ACCESS:      66751  HIT:      66751  MISS:          0
L2C PREFETCH  ACCESS:    7814810  HIT:    7814744  MISS:         66
L2C WRITEBACK ACCESS:     180058  HIT:     180055  MISS:          3
L2C PREFETCH  REQUESTED:    5163643  ISSUED:    5160773  USEFUL:          2  USELESS:          6
L2C AVERAGE MISS LATENCY: 40.28 cycles
LLC TOTAL     ACCESS:     747265  HIT:     746914  MISS:        351
LLC LOAD      ACCESS:          6  HIT:          6  MISS:          0
LLC RFO       ACCESS:          0  HIT:          0  MISS:          0
LLC PREFETCH  ACCESS:     747254  HIT:     746903  MISS:        351
LLC WRITEBACK ACCESS:          5  HIT:          5  MISS:          0
LLC PREFETCH  REQUESTED:          0  ISSUED:          0  USEFUL:          3  USELESS:          0
LLC AVERAGE MISS LATENCY: 168.573 cycles
Major fault: 0 Minor fault: 357
CPU 0 L1D next line prefetcher final stats

DRAM Statistics
 CHANNEL 0
 RQ ROW_BUFFER_HIT:         36  ROW_BUFFER_MISS:        315
 DBUS_CONGESTED:         43
 WQ ROW_BUFFER_HIT:          0  ROW_BUFFER_MISS:          0  FULL:          0

 AVG_CONGESTED_CYCLE: 5

CPU 0 Branch Prediction Accuracy: 99.9091% MPKI: 0.1547 Average ROB Occupancy at Mispredict: 307.724

Branch types
NOT_BRANCH: 41494970 82.9899%
BRANCH_DIRECT_JUMP: 491308 0.982616%
BRANCH_INDIRECT: 0 0%
BRANCH_CONDITIONAL: 5595254 11.1905%
BRANCH_DIRECT_CALL: 1028408 2.05682%
BRANCH_INDIRECT_CALL: 180756 0.361512%
BRANCH_RETURN: 1209170 2.41834%
BRANCH_OTHER: 0 0%

