Initialize SIGNATURE TABLE
ST_SET: 1
ST_WAY: 256
ST_TAG_BIT: 16
ST_TAG_MASK: ffff

Initialize PATTERN TABLE
PT_SET: 512
PT_WAY: 4
SIG_DELTA_BIT: 7
C_SIG_BIT: 4
C_DELTA_BIT: 4

Initialize PREFETCH FILTER
FILTER_SET: 1024

*** ChampSim Multicore Out-of-Order Simulator ***

Warmup Instructions: 50000000
Simulation Instructions: 50000000
Number of CPUs: 1
LLC sets: 2048
LLC ways: 16
Off-chip DRAM Size: 4096 MB Channels: 1 Width: 64-bit Data Rate: 3200 MT/s

CPU 0 runs /home/ChampSim-master//dpc3_traces/server_010.champsimtrace.xz
CPU 0 EPI prefetcher
CPU 0 L1D next line prefetcher
Heartbeat CPU 0 instructions: 10000000 cycles: 3195678 heartbeat IPC: 3.12923 cumulative IPC: 3.12923 (Simulation time: 0 hr 2 min 55 sec) 
Heartbeat CPU 0 instructions: 20000002 cycles: 6387792 heartbeat IPC: 3.13272 cumulative IPC: 3.13097 (Simulation time: 0 hr 5 min 48 sec) 
Heartbeat CPU 0 instructions: 30000001 cycles: 9582955 heartbeat IPC: 3.12973 cumulative IPC: 3.13056 (Simulation time: 0 hr 8 min 42 sec) 
Heartbeat CPU 0 instructions: 40000000 cycles: 12774370 heartbeat IPC: 3.13341 cumulative IPC: 3.13127 (Simulation time: 0 hr 11 min 37 sec) 
Heartbeat CPU 0 instructions: 50000003 cycles: 15971448 heartbeat IPC: 3.12786 cumulative IPC: 3.13059 (Simulation time: 0 hr 14 min 42 sec) 

Warmup complete CPU 0 instructions: 50000003 cycles: 15971448 (Simulation time: 0 hr 14 min 42 sec) 

Heartbeat CPU 0 instructions: 60000000 cycles: 24856284 heartbeat IPC: 1.12551 cumulative IPC: 1.12551 (Simulation time: 0 hr 17 min 0 sec) 
Heartbeat CPU 0 instructions: 70000000 cycles: 33926916 heartbeat IPC: 1.10246 cumulative IPC: 1.11387 (Simulation time: 0 hr 19 min 14 sec) 
Heartbeat CPU 0 instructions: 80000003 cycles: 43090334 heartbeat IPC: 1.0913 cumulative IPC: 1.10624 (Simulation time: 0 hr 21 min 27 sec) 
Heartbeat CPU 0 instructions: 90000002 cycles: 51941237 heartbeat IPC: 1.12983 cumulative IPC: 1.11204 (Simulation time: 0 hr 23 min 37 sec) 
Heartbeat CPU 0 instructions: 100000003 cycles: 73307805 heartbeat IPC: 0.468021 cumulative IPC: 0.872047 (Simulation time: 0 hr 26 min 22 sec) 
Finished CPU 0 instructions: 50000000 cycles: 57336357 cumulative IPC: 0.872047 (Simulation time: 0 hr 26 min 22 sec) 

ChampSim completed all CPUs

Region of Interest Statistics

CPU 0 cumulative IPC: 0.872047 instructions: 50000000 cycles: 57336357
L1D TOTAL     ACCESS:   20502010  HIT:   17276283  MISS:    3225727
L1D LOAD      ACCESS:    7988612  HIT:    6404079  MISS:    1584533
L1D RFO       ACCESS:    4737499  HIT:    4643066  MISS:      94433
L1D PREFETCH  ACCESS:    7775899  HIT:    6229138  MISS:    1546761
L1D WRITEBACK ACCESS:          0  HIT:          0  MISS:          0
L1D PREFETCH  REQUESTED:    8022677  ISSUED:    7920492  USEFUL:     125889  USELESS:    1420842
L1D AVERAGE MISS LATENCY: 22.3224 cycles
L1I TOTAL     ACCESS:   21841685  HIT:   20588093  MISS:    1253592
L1I LOAD      ACCESS:    9798307  HIT:    9276514  MISS:     521793
L1I RFO       ACCESS:          0  HIT:          0  MISS:          0
L1I PREFETCH  ACCESS:   12043378  HIT:   11311579  MISS:     731799
L1I WRITEBACK ACCESS:          0  HIT:          0  MISS:          0
L1I PREFETCH  REQUESTED:   13417557  ISSUED:   13417557  USEFUL:     631420  USELESS:     100355
L1I AVERAGE MISS LATENCY: 31.1858 cycles
L2C TOTAL     ACCESS:    6110387  HIT:    5035278  MISS:    1075109
L2C LOAD      ACCESS:    2060366  HIT:    1585429  MISS:     474937
L2C RFO       ACCESS:      93370  HIT:      50302  MISS:      43068
L2C PREFETCH  ACCESS:    3691283  HIT:    3134875  MISS:     556408
L2C WRITEBACK ACCESS:     265368  HIT:     264672  MISS:        696
L2C PREFETCH  REQUESTED:    6194973  ISSUED:    6191929  USEFUL:      50554  USELESS:     505598
L2C AVERAGE MISS LATENCY: 41.9323 cycles
LLC TOTAL     ACCESS:    2792703  HIT:    2651900  MISS:     140803
LLC LOAD      ACCESS:     455168  HIT:     433161  MISS:      22007
LLC RFO       ACCESS:      43065  HIT:      34793  MISS:       8272
LLC PREFETCH  ACCESS:    2148715  HIT:    2038614  MISS:     110101
LLC WRITEBACK ACCESS:     145755  HIT:     145332  MISS:        423
LLC PREFETCH  REQUESTED:          0  ISSUED:          0  USEFUL:      16002  USELESS:      93973
LLC AVERAGE MISS LATENCY: 169.669 cycles
Major fault: 0 Minor fault: 5593
CPU 0 L1I EPI prefetcher final stats
CPU 0 L1D next line prefetcher final stats

DRAM Statistics
 CHANNEL 0
 RQ ROW_BUFFER_HIT:      23299  ROW_BUFFER_MISS:     117068
 DBUS_CONGESTED:      61050
 WQ ROW_BUFFER_HIT:       9740  ROW_BUFFER_MISS:      44866  FULL:          0

 AVG_CONGESTED_CYCLE: 6

CPU 0 Branch Prediction Accuracy: 99.5528% MPKI: 0.89798 Average ROB Occupancy at Mispredict: 99.2588

Branch types
NOT_BRANCH: 39958786 79.9176%
BRANCH_DIRECT_JUMP: 449946 0.899892%
BRANCH_INDIRECT: 140210 0.28042%
BRANCH_CONDITIONAL: 7679676 15.3594%
BRANCH_DIRECT_CALL: 701578 1.40316%
BRANCH_INDIRECT_CALL: 168971 0.337942%
BRANCH_RETURN: 900560 1.80112%
BRANCH_OTHER: 0 0%

