Initialize SIGNATURE TABLE
ST_SET: 1
ST_WAY: 256
ST_TAG_BIT: 16
ST_TAG_MASK: ffff

Initialize PATTERN TABLE
PT_SET: 512
PT_WAY: 4
SIG_DELTA_BIT: 7
C_SIG_BIT: 4
C_DELTA_BIT: 4

Initialize PREFETCH FILTER
FILTER_SET: 1024

*** ChampSim Multicore Out-of-Order Simulator ***

Warmup Instructions: 50000000
Simulation Instructions: 50000000
Number of CPUs: 1
LLC sets: 2048
LLC ways: 16
Off-chip DRAM Size: 4096 MB Channels: 1 Width: 64-bit Data Rate: 3200 MT/s

CPU 0 runs /home/ChampSim-master//dpc3_traces/server_002.champsimtrace.xz
L1I D-JOLT instruction prefetcher has been constructed!
CPU 0 L1D next line prefetcher
Heartbeat CPU 0 instructions: 10000000 cycles: 3581202 heartbeat IPC: 2.79236 cumulative IPC: 2.79236 (Simulation time: 0 hr 3 min 1 sec) 
Heartbeat CPU 0 instructions: 20000002 cycles: 7170066 heartbeat IPC: 2.7864 cumulative IPC: 2.78937 (Simulation time: 0 hr 6 min 13 sec) 
Heartbeat CPU 0 instructions: 30000000 cycles: 10710766 heartbeat IPC: 2.8243 cumulative IPC: 2.80092 (Simulation time: 0 hr 9 min 3 sec) 
Heartbeat CPU 0 instructions: 40000000 cycles: 14261011 heartbeat IPC: 2.81671 cumulative IPC: 2.80485 (Simulation time: 0 hr 12 min 16 sec) 
Heartbeat CPU 0 instructions: 50000001 cycles: 17808782 heartbeat IPC: 2.81867 cumulative IPC: 2.8076 (Simulation time: 0 hr 15 min 13 sec) 

Warmup complete CPU 0 instructions: 50000001 cycles: 17808782 (Simulation time: 0 hr 15 min 13 sec) 

Heartbeat CPU 0 instructions: 60000000 cycles: 24248874 heartbeat IPC: 1.55277 cumulative IPC: 1.55277 (Simulation time: 0 hr 17 min 50 sec) 
Heartbeat CPU 0 instructions: 70000003 cycles: 30682286 heartbeat IPC: 1.55439 cumulative IPC: 1.55358 (Simulation time: 0 hr 20 min 57 sec) 
Heartbeat CPU 0 instructions: 80000003 cycles: 37118317 heartbeat IPC: 1.55375 cumulative IPC: 1.55364 (Simulation time: 0 hr 23 min 30 sec) 
Heartbeat CPU 0 instructions: 90000002 cycles: 43552171 heartbeat IPC: 1.55428 cumulative IPC: 1.5538 (Simulation time: 0 hr 25 min 24 sec) 
Heartbeat CPU 0 instructions: 100000003 cycles: 49985682 heartbeat IPC: 1.55436 cumulative IPC: 1.55391 (Simulation time: 0 hr 26 min 30 sec) 
Finished CPU 0 instructions: 50000002 cycles: 32176900 cumulative IPC: 1.55391 (Simulation time: 0 hr 26 min 30 sec) 

ChampSim completed all CPUs

Region of Interest Statistics

CPU 0 cumulative IPC: 1.55391 instructions: 50000002 cycles: 32176900
L1D TOTAL     ACCESS:   21522930  HIT:   21522121  MISS:        809
L1D LOAD      ACCESS:    6601118  HIT:    6600742  MISS:        376
L1D RFO       ACCESS:    8433022  HIT:    8432909  MISS:        113
L1D PREFETCH  ACCESS:    6488790  HIT:    6488470  MISS:        320
L1D WRITEBACK ACCESS:          0  HIT:          0  MISS:          0
L1D PREFETCH  REQUESTED:    6601169  ISSUED:    6496144  USEFUL:         91  USELESS:        230
L1D AVERAGE MISS LATENCY: 39.8826 cycles
L1I TOTAL     ACCESS:   19511879  HIT:   15416489  MISS:    4095390
L1I LOAD      ACCESS:    9905590  HIT:    9890006  MISS:      15584
L1I RFO       ACCESS:          0  HIT:          0  MISS:          0
L1I PREFETCH  ACCESS:    9606289  HIT:    5526483  MISS:    4079806
L1I WRITEBACK ACCESS:          0  HIT:          0  MISS:          0
L1I PREFETCH  REQUESTED:   10075764  ISSUED:    9911717  USEFUL:    2498232  USELESS:    1581557
L1I AVERAGE MISS LATENCY: 14.5901 cycles
L2C TOTAL     ACCESS:    5851843  HIT:    5851556  MISS:        287
L2C LOAD      ACCESS:      15904  HIT:      15841  MISS:         63
L2C RFO       ACCESS:        112  HIT:        109  MISS:          3
L2C PREFETCH  ACCESS:    5835491  HIT:    5835271  MISS:        220
L2C WRITEBACK ACCESS:        336  HIT:        335  MISS:          1
L2C PREFETCH  REQUESTED:    4448592  ISSUED:    4442738  USEFUL:        113  USELESS:        104
L2C AVERAGE MISS LATENCY: 139.355 cycles
LLC TOTAL     ACCESS:    1015925  HIT:    1015154  MISS:        771
LLC LOAD      ACCESS:         63  HIT:         52  MISS:         11
LLC RFO       ACCESS:          3  HIT:          2  MISS:          1
LLC PREFETCH  ACCESS:    1015759  HIT:    1015002  MISS:        757
LLC WRITEBACK ACCESS:        100  HIT:         98  MISS:          2
LLC PREFETCH  REQUESTED:          0  ISSUED:          0  USEFUL:         12  USELESS:        169
LLC AVERAGE MISS LATENCY: 455.643 cycles
Major fault: 0 Minor fault: 1873
CPU 0 L1D next line prefetcher final stats

DRAM Statistics
 CHANNEL 0
 RQ ROW_BUFFER_HIT:        157  ROW_BUFFER_MISS:        612
 DBUS_CONGESTED:        547
 WQ ROW_BUFFER_HIT:         89  ROW_BUFFER_MISS:        460  FULL:          0

 AVG_CONGESTED_CYCLE: 6

CPU 0 Branch Prediction Accuracy: 99.8789% MPKI: 0.20388 Average ROB Occupancy at Mispredict: 272.232

Branch types
NOT_BRANCH: 41580695 83.1614%
BRANCH_DIRECT_JUMP: 461630 0.92326%
BRANCH_INDIRECT: 0 0%
BRANCH_CONDITIONAL: 5376437 10.7529%
BRANCH_DIRECT_CALL: 1175775 2.35155%
BRANCH_INDIRECT_CALL: 114840 0.22968%
BRANCH_RETURN: 1290625 2.58125%
BRANCH_OTHER: 0 0%

