Initialize SIGNATURE TABLE
ST_SET: 1
ST_WAY: 256
ST_TAG_BIT: 16
ST_TAG_MASK: ffff

Initialize PATTERN TABLE
PT_SET: 512
PT_WAY: 4
SIG_DELTA_BIT: 7
C_SIG_BIT: 4
C_DELTA_BIT: 4

Initialize PREFETCH FILTER
FILTER_SET: 1024

*** ChampSim Multicore Out-of-Order Simulator ***

Warmup Instructions: 50000000
Simulation Instructions: 50000000
Number of CPUs: 1
LLC sets: 2048
LLC ways: 16
Off-chip DRAM Size: 4096 MB Channels: 1 Width: 64-bit Data Rate: 3200 MT/s

CPU 0 runs /home/ChampSim-master//dpc3_traces/server_024.champsimtrace.xz
L1I D-JOLT instruction prefetcher has been constructed!
CPU 0 L1D next line prefetcher
Heartbeat CPU 0 instructions: 10000000 cycles: 3501764 heartbeat IPC: 2.8557 cumulative IPC: 2.8557 (Simulation time: 0 hr 2 min 48 sec) 
Heartbeat CPU 0 instructions: 20000002 cycles: 6996760 heartbeat IPC: 2.86123 cumulative IPC: 2.85847 (Simulation time: 0 hr 5 min 40 sec) 
Heartbeat CPU 0 instructions: 30000000 cycles: 10501810 heartbeat IPC: 2.85303 cumulative IPC: 2.85665 (Simulation time: 0 hr 8 min 42 sec) 
Heartbeat CPU 0 instructions: 40000000 cycles: 14004222 heartbeat IPC: 2.85518 cumulative IPC: 2.85628 (Simulation time: 0 hr 11 min 32 sec) 
Heartbeat CPU 0 instructions: 50000001 cycles: 17496588 heartbeat IPC: 2.86339 cumulative IPC: 2.8577 (Simulation time: 0 hr 14 min 17 sec) 

Warmup complete CPU 0 instructions: 50000001 cycles: 17496588 (Simulation time: 0 hr 14 min 17 sec) 

Heartbeat CPU 0 instructions: 60000002 cycles: 24255302 heartbeat IPC: 1.47957 cumulative IPC: 1.47957 (Simulation time: 0 hr 17 min 3 sec) 
Heartbeat CPU 0 instructions: 70000000 cycles: 31055424 heartbeat IPC: 1.47056 cumulative IPC: 1.47505 (Simulation time: 0 hr 20 min 8 sec) 
*** Reached end of trace for Core: 0 Repeating trace: /home/ChampSim-master//dpc3_traces/server_024.champsimtrace.xz
Heartbeat CPU 0 instructions: 80000003 cycles: 37836350 heartbeat IPC: 1.47473 cumulative IPC: 1.47494 (Simulation time: 0 hr 22 min 41 sec) 
Heartbeat CPU 0 instructions: 90000003 cycles: 44667595 heartbeat IPC: 1.46386 cumulative IPC: 1.47216 (Simulation time: 0 hr 24 min 49 sec) 
Heartbeat CPU 0 instructions: 100000002 cycles: 51455617 heartbeat IPC: 1.47318 cumulative IPC: 1.47236 (Simulation time: 0 hr 26 min 8 sec) 
Finished CPU 0 instructions: 50000001 cycles: 33959029 cumulative IPC: 1.47236 (Simulation time: 0 hr 26 min 8 sec) 

ChampSim completed all CPUs

Region of Interest Statistics

CPU 0 cumulative IPC: 1.47236 instructions: 50000001 cycles: 33959029
L1D TOTAL     ACCESS:   19654564  HIT:   18137204  MISS:    1517360
L1D LOAD      ACCESS:    6917455  HIT:    6236871  MISS:     680584
L1D RFO       ACCESS:    6150528  HIT:    5876868  MISS:     273660
L1D PREFETCH  ACCESS:    6586581  HIT:    6023465  MISS:     563116
L1D WRITEBACK ACCESS:          0  HIT:          0  MISS:          0
L1D PREFETCH  REQUESTED:    6971223  ISSUED:    6848078  USEFUL:     135747  USELESS:     427374
L1D AVERAGE MISS LATENCY: 25.8805 cycles
L1I TOTAL     ACCESS:   15770193  HIT:   12672737  MISS:    3097456
L1I LOAD      ACCESS:    9359489  HIT:    9319621  MISS:      39868
L1I RFO       ACCESS:          0  HIT:          0  MISS:          0
L1I PREFETCH  ACCESS:    6410704  HIT:    3353116  MISS:    3057588
L1I WRITEBACK ACCESS:          0  HIT:          0  MISS:          0
L1I PREFETCH  REQUESTED:    6803726  ISSUED:    6722375  USEFUL:    2518165  USELESS:     539415
L1I AVERAGE MISS LATENCY: 19.2282 cycles
L2C TOTAL     ACCESS:    6470164  HIT:    5668850  MISS:     801314
L2C LOAD      ACCESS:     654532  HIT:     517774  MISS:     136758
L2C RFO       ACCESS:     272192  HIT:     182354  MISS:      89838
L2C PREFETCH  ACCESS:    5023324  HIT:    4456482  MISS:     566842
L2C WRITEBACK ACCESS:     520116  HIT:     512240  MISS:       7876
L2C PREFETCH  REQUESTED:    4762165  ISSUED:    4752850  USEFUL:      11309  USELESS:     555177
L2C AVERAGE MISS LATENCY: 41.7182 cycles
LLC TOTAL     ACCESS:    2232426  HIT:    2181066  MISS:      51360
LLC LOAD      ACCESS:     136491  HIT:     131028  MISS:       5463
LLC RFO       ACCESS:      89837  HIT:      67634  MISS:      22203
LLC PREFETCH  ACCESS:    1857392  HIT:    1833912  MISS:      23480
LLC WRITEBACK ACCESS:     148706  HIT:     148492  MISS:        214
LLC PREFETCH  REQUESTED:          0  ISSUED:          0  USEFUL:       1924  USELESS:      21735
LLC AVERAGE MISS LATENCY: 199.565 cycles
Major fault: 0 Minor fault: 2373
CPU 0 L1D next line prefetcher final stats

DRAM Statistics
 CHANNEL 0
 RQ ROW_BUFFER_HIT:      17345  ROW_BUFFER_MISS:      33796
 DBUS_CONGESTED:      37429
 WQ ROW_BUFFER_HIT:       2691  ROW_BUFFER_MISS:      22789  FULL:          0

 AVG_CONGESTED_CYCLE: 6

CPU 0 Branch Prediction Accuracy: 99.7477% MPKI: 0.46156 Average ROB Occupancy at Mispredict: 175.336

Branch types
NOT_BRANCH: 40853665 81.7073%
BRANCH_DIRECT_JUMP: 566818 1.13364%
BRANCH_INDIRECT: 197171 0.394342%
BRANCH_CONDITIONAL: 6308416 12.6168%
BRANCH_DIRECT_CALL: 876400 1.7528%
BRANCH_INDIRECT_CALL: 160491 0.320982%
BRANCH_RETURN: 1036885 2.07377%
BRANCH_OTHER: 0 0%

