Initialize SIGNATURE TABLE
ST_SET: 1
ST_WAY: 256
ST_TAG_BIT: 16
ST_TAG_MASK: ffff

Initialize PATTERN TABLE
PT_SET: 512
PT_WAY: 4
SIG_DELTA_BIT: 7
C_SIG_BIT: 4
C_DELTA_BIT: 4

Initialize PREFETCH FILTER
FILTER_SET: 1024

*** ChampSim Multicore Out-of-Order Simulator ***

Warmup Instructions: 50000000
Simulation Instructions: 50000000
Number of CPUs: 1
LLC sets: 2048
LLC ways: 16
Off-chip DRAM Size: 4096 MB Channels: 1 Width: 64-bit Data Rate: 3200 MT/s

CPU 0 runs /home/ChampSim-master//dpc3_traces/server_019.champsimtrace.xz
L1I D-JOLT instruction prefetcher has been constructed!
CPU 0 L1D next line prefetcher
Heartbeat CPU 0 instructions: 10000002 cycles: 3622747 heartbeat IPC: 2.76034 cumulative IPC: 2.76034 (Simulation time: 0 hr 3 min 3 sec) 
Heartbeat CPU 0 instructions: 20000003 cycles: 7246891 heartbeat IPC: 2.75927 cumulative IPC: 2.7598 (Simulation time: 0 hr 6 min 9 sec) 
Heartbeat CPU 0 instructions: 30000002 cycles: 10870206 heartbeat IPC: 2.7599 cumulative IPC: 2.75984 (Simulation time: 0 hr 9 min 16 sec) 
Heartbeat CPU 0 instructions: 40000002 cycles: 14505618 heartbeat IPC: 2.75072 cumulative IPC: 2.75755 (Simulation time: 0 hr 12 min 35 sec) 
Heartbeat CPU 0 instructions: 50000001 cycles: 18129320 heartbeat IPC: 2.75961 cumulative IPC: 2.75796 (Simulation time: 0 hr 15 min 35 sec) 

Warmup complete CPU 0 instructions: 50000001 cycles: 18129320 (Simulation time: 0 hr 15 min 35 sec) 

Heartbeat CPU 0 instructions: 60000000 cycles: 37948227 heartbeat IPC: 0.504569 cumulative IPC: 0.504569 (Simulation time: 0 hr 19 min 16 sec) 
Heartbeat CPU 0 instructions: 70000002 cycles: 61516200 heartbeat IPC: 0.424305 cumulative IPC: 0.460969 (Simulation time: 0 hr 22 min 37 sec) 
Heartbeat CPU 0 instructions: 80000001 cycles: 82055871 heartbeat IPC: 0.486863 cumulative IPC: 0.469289 (Simulation time: 0 hr 25 min 31 sec) 
Heartbeat CPU 0 instructions: 90000002 cycles: 99650979 heartbeat IPC: 0.56834 cumulative IPC: 0.490667 (Simulation time: 0 hr 26 min 57 sec) 
Heartbeat CPU 0 instructions: 100000002 cycles: 117185233 heartbeat IPC: 0.570312 cumulative IPC: 0.504765 (Simulation time: 0 hr 27 min 32 sec) 
Finished CPU 0 instructions: 50000001 cycles: 99055913 cumulative IPC: 0.504765 (Simulation time: 0 hr 27 min 32 sec) 

ChampSim completed all CPUs

Region of Interest Statistics

CPU 0 cumulative IPC: 0.504765 instructions: 50000001 cycles: 99055913
L1D TOTAL     ACCESS:   18297144  HIT:   16073596  MISS:    2223548
L1D LOAD      ACCESS:    6975102  HIT:    6222884  MISS:     752218
L1D RFO       ACCESS:    5510634  HIT:    4608661  MISS:     901973
L1D PREFETCH  ACCESS:    5811408  HIT:    5242051  MISS:     569357
L1D WRITEBACK ACCESS:          0  HIT:          0  MISS:          0
L1D PREFETCH  REQUESTED:    7012317  ISSUED:    6827892  USEFUL:     200142  USELESS:     369123
L1D AVERAGE MISS LATENCY: 188.809 cycles
L1I TOTAL     ACCESS:   17887071  HIT:   14659420  MISS:    3227651
L1I LOAD      ACCESS:    9886114  HIT:    9842163  MISS:      43951
L1I RFO       ACCESS:          0  HIT:          0  MISS:          0
L1I PREFETCH  ACCESS:    8000957  HIT:    4817257  MISS:    3183700
L1I WRITEBACK ACCESS:          0  HIT:          0  MISS:          0
L1I PREFETCH  REQUESTED:    8635871  ISSUED:    8577615  USEFUL:    2447561  USELESS:     736074
L1I AVERAGE MISS LATENCY: 18.8402 cycles
L2C TOTAL     ACCESS:    8057554  HIT:    6161939  MISS:    1895615
L2C LOAD      ACCESS:     588205  HIT:     253309  MISS:     334896
L2C RFO       ACCESS:     901470  HIT:      17767  MISS:     883703
L2C PREFETCH  ACCESS:    5393250  HIT:    4718988  MISS:     674262
L2C WRITEBACK ACCESS:    1174629  HIT:    1171875  MISS:       2754
L2C PREFETCH  REQUESTED:    4994019  ISSUED:    4988004  USEFUL:      21667  USELESS:     651085
L2C AVERAGE MISS LATENCY: 225.703 cycles
LLC TOTAL     ACCESS:    4382681  HIT:    2757793  MISS:    1624888
LLC LOAD      ACCESS:     334793  HIT:     166581  MISS:     168212
LLC RFO       ACCESS:     883701  HIT:     114938  MISS:     768763
LLC PREFETCH  ACCESS:    2051161  HIT:    1365560  MISS:     685601
LLC WRITEBACK ACCESS:    1113026  HIT:    1110714  MISS:       2312
LLC PREFETCH  REQUESTED:          0  ISSUED:          0  USEFUL:      53776  USELESS:     631082
LLC AVERAGE MISS LATENCY: 280.522 cycles
Major fault: 0 Minor fault: 25694
CPU 0 L1D next line prefetcher final stats

DRAM Statistics
 CHANNEL 0
 RQ ROW_BUFFER_HIT:     398576  ROW_BUFFER_MISS:    1223719
 DBUS_CONGESTED:    1596168
 WQ ROW_BUFFER_HIT:     257288  ROW_BUFFER_MISS:     683017  FULL:          0

 AVG_CONGESTED_CYCLE: 6

CPU 0 Branch Prediction Accuracy: 99.2186% MPKI: 1.32192 Average ROB Occupancy at Mispredict: 179.508

Branch types
NOT_BRANCH: 41540785 83.0816%
BRANCH_DIRECT_JUMP: 462384 0.924768%
BRANCH_INDIRECT: 45460 0.09092%
BRANCH_CONDITIONAL: 6209281 12.4186%
BRANCH_DIRECT_CALL: 666241 1.33248%
BRANCH_INDIRECT_CALL: 204728 0.409456%
BRANCH_RETURN: 870978 1.74196%
BRANCH_OTHER: 0 0%

