Initialize SIGNATURE TABLE
ST_SET: 1
ST_WAY: 256
ST_TAG_BIT: 16
ST_TAG_MASK: ffff

Initialize PATTERN TABLE
PT_SET: 512
PT_WAY: 4
SIG_DELTA_BIT: 7
C_SIG_BIT: 4
C_DELTA_BIT: 4

Initialize PREFETCH FILTER
FILTER_SET: 1024

*** ChampSim Multicore Out-of-Order Simulator ***

Warmup Instructions: 50000000
Simulation Instructions: 50000000
Number of CPUs: 1
LLC sets: 2048
LLC ways: 16
Off-chip DRAM Size: 4096 MB Channels: 1 Width: 64-bit Data Rate: 3200 MT/s

CPU 0 runs /home/ChampSim-master//dpc3_traces/server_018.champsimtrace.xz
L1I D-JOLT instruction prefetcher has been constructed!
CPU 0 L1D next line prefetcher
Heartbeat CPU 0 instructions: 10000003 cycles: 3616384 heartbeat IPC: 2.76519 cumulative IPC: 2.76519 (Simulation time: 0 hr 2 min 43 sec) 
Heartbeat CPU 0 instructions: 20000001 cycles: 7237843 heartbeat IPC: 2.76132 cumulative IPC: 2.76325 (Simulation time: 0 hr 5 min 34 sec) 
Heartbeat CPU 0 instructions: 30000003 cycles: 10713000 heartbeat IPC: 2.87757 cumulative IPC: 2.80034 (Simulation time: 0 hr 8 min 2 sec) 
Heartbeat CPU 0 instructions: 40000000 cycles: 14225429 heartbeat IPC: 2.84703 cumulative IPC: 2.81187 (Simulation time: 0 hr 11 min 6 sec) 
Heartbeat CPU 0 instructions: 50000003 cycles: 17843069 heartbeat IPC: 2.76423 cumulative IPC: 2.80221 (Simulation time: 0 hr 14 min 6 sec) 

Warmup complete CPU 0 instructions: 50000003 cycles: 17843069 (Simulation time: 0 hr 14 min 6 sec) 

Heartbeat CPU 0 instructions: 60000000 cycles: 35299711 heartbeat IPC: 0.572848 cumulative IPC: 0.572848 (Simulation time: 0 hr 17 min 23 sec) 
Heartbeat CPU 0 instructions: 70000001 cycles: 52939034 heartbeat IPC: 0.566915 cumulative IPC: 0.569866 (Simulation time: 0 hr 20 min 34 sec) 
Heartbeat CPU 0 instructions: 80000000 cycles: 70383936 heartbeat IPC: 0.573233 cumulative IPC: 0.570984 (Simulation time: 0 hr 23 min 26 sec) 
Heartbeat CPU 0 instructions: 90000002 cycles: 87882178 heartbeat IPC: 0.571486 cumulative IPC: 0.571109 (Simulation time: 0 hr 24 min 48 sec) 
Heartbeat CPU 0 instructions: 100000001 cycles: 105399989 heartbeat IPC: 0.570848 cumulative IPC: 0.571057 (Simulation time: 0 hr 25 min 21 sec) 
Finished CPU 0 instructions: 50000002 cycles: 87556922 cumulative IPC: 0.571057 (Simulation time: 0 hr 25 min 21 sec) 

ChampSim completed all CPUs

Region of Interest Statistics

CPU 0 cumulative IPC: 0.571057 instructions: 50000002 cycles: 87556922
L1D TOTAL     ACCESS:   18615565  HIT:   16397830  MISS:    2217735
L1D LOAD      ACCESS:    7042892  HIT:    6317427  MISS:     725465
L1D RFO       ACCESS:    5805679  HIT:    4853423  MISS:     952256
L1D PREFETCH  ACCESS:    5766994  HIT:    5226980  MISS:     540014
L1D WRITEBACK ACCESS:          0  HIT:          0  MISS:          0
L1D PREFETCH  REQUESTED:    7084309  ISSUED:    6881474  USEFUL:     200253  USELESS:     339850
L1D AVERAGE MISS LATENCY: 177.723 cycles
L1I TOTAL     ACCESS:   17937083  HIT:   14517855  MISS:    3419228
L1I LOAD      ACCESS:   10125076  HIT:   10089759  MISS:      35317
L1I RFO       ACCESS:          0  HIT:          0  MISS:          0
L1I PREFETCH  ACCESS:    7812007  HIT:    4428096  MISS:    3383911
L1I WRITEBACK ACCESS:          0  HIT:          0  MISS:          0
L1I PREFETCH  REQUESTED:    8350160  ISSUED:    8318546  USEFUL:    2711617  USELESS:     672193
L1I AVERAGE MISS LATENCY: 17.7335 cycles
L2C TOTAL     ACCESS:    8302717  HIT:    6441352  MISS:    1861365
L2C LOAD      ACCESS:     530506  HIT:     266418  MISS:     264088
L2C RFO       ACCESS:     951725  HIT:      19355  MISS:     932370
L2C PREFETCH  ACCESS:    5650464  HIT:    4988945  MISS:     661519
L2C WRITEBACK ACCESS:    1170022  HIT:    1166634  MISS:       3388
L2C PREFETCH  REQUESTED:    4931913  ISSUED:    4925997  USEFUL:      21786  USELESS:     640874
L2C AVERAGE MISS LATENCY: 216.736 cycles
LLC TOTAL     ACCESS:    4217151  HIT:    2764871  MISS:    1452280
LLC LOAD      ACCESS:     264038  HIT:     164864  MISS:      99174
LLC RFO       ACCESS:     932369  HIT:     135891  MISS:     796478
LLC PREFETCH  ACCESS:    1917854  HIT:    1363435  MISS:     554419
LLC WRITEBACK ACCESS:    1102890  HIT:    1100681  MISS:       2209
LLC PREFETCH  REQUESTED:          0  ISSUED:          0  USEFUL:      30117  USELESS:     524554
LLC AVERAGE MISS LATENCY: 284.616 cycles
Major fault: 0 Minor fault: 22446
CPU 0 L1D next line prefetcher final stats

DRAM Statistics
 CHANNEL 0
 RQ ROW_BUFFER_HIT:     408126  ROW_BUFFER_MISS:    1041660
 DBUS_CONGESTED:    1456586
 WQ ROW_BUFFER_HIT:     258147  ROW_BUFFER_MISS:     639265  FULL:          0

 AVG_CONGESTED_CYCLE: 6

CPU 0 Branch Prediction Accuracy: 99.7114% MPKI: 0.47678 Average ROB Occupancy at Mispredict: 212.851

Branch types
NOT_BRANCH: 41740997 83.482%
BRANCH_DIRECT_JUMP: 458652 0.917304%
BRANCH_INDIRECT: 48282 0.096564%
BRANCH_CONDITIONAL: 5930880 11.8618%
BRANCH_DIRECT_CALL: 744230 1.48846%
BRANCH_INDIRECT_CALL: 166336 0.332672%
BRANCH_RETURN: 910589 1.82118%
BRANCH_OTHER: 0 0%

