Initialize SIGNATURE TABLE
ST_SET: 1
ST_WAY: 256
ST_TAG_BIT: 16
ST_TAG_MASK: ffff

Initialize PATTERN TABLE
PT_SET: 512
PT_WAY: 4
SIG_DELTA_BIT: 7
C_SIG_BIT: 4
C_DELTA_BIT: 4

Initialize PREFETCH FILTER
FILTER_SET: 1024

*** ChampSim Multicore Out-of-Order Simulator ***

Warmup Instructions: 50000000
Simulation Instructions: 50000000
Number of CPUs: 1
LLC sets: 2048
LLC ways: 16
Off-chip DRAM Size: 4096 MB Channels: 1 Width: 64-bit Data Rate: 3200 MT/s

CPU 0 runs /home/ChampSim-master//dpc3_traces/server_031.champsimtrace.xz
L1I D-JOLT instruction prefetcher has been constructed!
CPU 0 L1D next line prefetcher
Heartbeat CPU 0 instructions: 10000003 cycles: 3519772 heartbeat IPC: 2.84109 cumulative IPC: 2.84109 (Simulation time: 0 hr 2 min 42 sec) 
Heartbeat CPU 0 instructions: 20000002 cycles: 7038245 heartbeat IPC: 2.84214 cumulative IPC: 2.84162 (Simulation time: 0 hr 5 min 30 sec) 
Heartbeat CPU 0 instructions: 30000002 cycles: 10557358 heartbeat IPC: 2.84163 cumulative IPC: 2.84162 (Simulation time: 0 hr 8 min 4 sec) 
Heartbeat CPU 0 instructions: 40000003 cycles: 14071701 heartbeat IPC: 2.84548 cumulative IPC: 2.84258 (Simulation time: 0 hr 11 min 9 sec) 
Heartbeat CPU 0 instructions: 50000001 cycles: 17588335 heartbeat IPC: 2.84363 cumulative IPC: 2.84279 (Simulation time: 0 hr 14 min 3 sec) 

Warmup complete CPU 0 instructions: 50000001 cycles: 17588335 (Simulation time: 0 hr 14 min 3 sec) 

Heartbeat CPU 0 instructions: 60000001 cycles: 25057829 heartbeat IPC: 1.33878 cumulative IPC: 1.33878 (Simulation time: 0 hr 16 min 41 sec) 
Heartbeat CPU 0 instructions: 70000002 cycles: 32589383 heartbeat IPC: 1.32775 cumulative IPC: 1.33324 (Simulation time: 0 hr 19 min 17 sec) 
*** Reached end of trace for Core: 0 Repeating trace: /home/ChampSim-master//dpc3_traces/server_031.champsimtrace.xz
Heartbeat CPU 0 instructions: 80000000 cycles: 39979861 heartbeat IPC: 1.35309 cumulative IPC: 1.33979 (Simulation time: 0 hr 21 min 49 sec) 
Heartbeat CPU 0 instructions: 90000003 cycles: 47407705 heartbeat IPC: 1.34629 cumulative IPC: 1.34141 (Simulation time: 0 hr 23 min 43 sec) 
Heartbeat CPU 0 instructions: 100000000 cycles: 54810261 heartbeat IPC: 1.35088 cumulative IPC: 1.34329 (Simulation time: 0 hr 24 min 43 sec) 
Finished CPU 0 instructions: 50000000 cycles: 37221928 cumulative IPC: 1.34329 (Simulation time: 0 hr 24 min 43 sec) 

ChampSim completed all CPUs

Region of Interest Statistics

CPU 0 cumulative IPC: 1.34329 instructions: 50000000 cycles: 37221928
L1D TOTAL     ACCESS:   19508439  HIT:   17604051  MISS:    1904388
L1D LOAD      ACCESS:    6761461  HIT:    5888270  MISS:     873191
L1D RFO       ACCESS:    6327333  HIT:    6036163  MISS:     291170
L1D PREFETCH  ACCESS:    6419645  HIT:    5679618  MISS:     740027
L1D WRITEBACK ACCESS:          0  HIT:          0  MISS:          0
L1D PREFETCH  REQUESTED:    6822319  ISSUED:    6708257  USEFUL:     174242  USELESS:     565790
L1D AVERAGE MISS LATENCY: 22.7348 cycles
L1I TOTAL     ACCESS:   15706956  HIT:   12276356  MISS:    3430600
L1I LOAD      ACCESS:    9723368  HIT:    9697888  MISS:      25480
L1I RFO       ACCESS:          0  HIT:          0  MISS:          0
L1I PREFETCH  ACCESS:    5983588  HIT:    2578468  MISS:    3405120
L1I WRITEBACK ACCESS:          0  HIT:          0  MISS:          0
L1I PREFETCH  REQUESTED:    6248343  ISSUED:    6227187  USEFUL:    3014907  USELESS:     390245
L1I AVERAGE MISS LATENCY: 18.0431 cycles
L2C TOTAL     ACCESS:    7668699  HIT:    7032942  MISS:     635757
L2C LOAD      ACCESS:     846924  HIT:     716862  MISS:     130062
L2C RFO       ACCESS:     289129  HIT:     245959  MISS:      43170
L2C PREFETCH  ACCESS:    5915712  HIT:    5454410  MISS:     461302
L2C WRITEBACK ACCESS:     616934  HIT:     615711  MISS:       1223
L2C PREFETCH  REQUESTED:    5524285  ISSUED:    5512198  USEFUL:       5553  USELESS:     455305
L2C AVERAGE MISS LATENCY: 44.307 cycles
LLC TOTAL     ACCESS:    2224418  HIT:    2139189  MISS:      85229
LLC LOAD      ACCESS:     130005  HIT:     111018  MISS:      18987
LLC RFO       ACCESS:      43169  HIT:      39000  MISS:       4169
LLC PREFETCH  ACCESS:    1966255  HIT:    1904769  MISS:      61486
LLC WRITEBACK ACCESS:      84989  HIT:      84402  MISS:        587
LLC PREFETCH  REQUESTED:          0  ISSUED:          0  USEFUL:       2616  USELESS:      58271
LLC AVERAGE MISS LATENCY: 159.931 cycles
Major fault: 0 Minor fault: 6047
CPU 0 L1D next line prefetcher final stats

DRAM Statistics
 CHANNEL 0
 RQ ROW_BUFFER_HIT:      22425  ROW_BUFFER_MISS:      62212
 DBUS_CONGESTED:      32553
 WQ ROW_BUFFER_HIT:        827  ROW_BUFFER_MISS:       5216  FULL:          0

 AVG_CONGESTED_CYCLE: 5

CPU 0 Branch Prediction Accuracy: 99.6894% MPKI: 0.58048 Average ROB Occupancy at Mispredict: 144.886

Branch types
NOT_BRANCH: 40655726 81.3115%
BRANCH_DIRECT_JUMP: 546483 1.09297%
BRANCH_INDIRECT: 172433 0.344866%
BRANCH_CONDITIONAL: 6207602 12.4152%
BRANCH_DIRECT_CALL: 1018500 2.037%
BRANCH_INDIRECT_CALL: 190373 0.380746%
BRANCH_RETURN: 1208856 2.41771%
BRANCH_OTHER: 0 0%

