Initialize SIGNATURE TABLE
ST_SET: 1
ST_WAY: 256
ST_TAG_BIT: 16
ST_TAG_MASK: ffff

Initialize PATTERN TABLE
PT_SET: 512
PT_WAY: 4
SIG_DELTA_BIT: 7
C_SIG_BIT: 4
C_DELTA_BIT: 4

Initialize PREFETCH FILTER
FILTER_SET: 1024

*** ChampSim Multicore Out-of-Order Simulator ***

Warmup Instructions: 50000000
Simulation Instructions: 50000000
Number of CPUs: 1
LLC sets: 2048
LLC ways: 16
Off-chip DRAM Size: 4096 MB Channels: 1 Width: 64-bit Data Rate: 3200 MT/s

CPU 0 runs /home/ChampSim-master//dpc3_traces/server_026.champsimtrace.xz
L1I D-JOLT instruction prefetcher has been constructed!
CPU 0 L1D next line prefetcher
Heartbeat CPU 0 instructions: 10000000 cycles: 3522902 heartbeat IPC: 2.83857 cumulative IPC: 2.83857 (Simulation time: 0 hr 3 min 28 sec) 
Heartbeat CPU 0 instructions: 20000002 cycles: 7051747 heartbeat IPC: 2.83379 cumulative IPC: 2.83618 (Simulation time: 0 hr 6 min 48 sec) 
Heartbeat CPU 0 instructions: 30000000 cycles: 10570439 heartbeat IPC: 2.84196 cumulative IPC: 2.8381 (Simulation time: 0 hr 9 min 50 sec) 
Heartbeat CPU 0 instructions: 40000003 cycles: 14098386 heartbeat IPC: 2.83451 cumulative IPC: 2.8372 (Simulation time: 0 hr 12 min 49 sec) 
Heartbeat CPU 0 instructions: 50000000 cycles: 17619407 heartbeat IPC: 2.84008 cumulative IPC: 2.83778 (Simulation time: 0 hr 15 min 37 sec) 

Warmup complete CPU 0 instructions: 50000004 cycles: 17619408 (Simulation time: 0 hr 15 min 37 sec) 

*** Reached end of trace for Core: 0 Repeating trace: /home/ChampSim-master//dpc3_traces/server_026.champsimtrace.xz
Heartbeat CPU 0 instructions: 60000000 cycles: 24535611 heartbeat IPC: 1.44588 cumulative IPC: 1.44588 (Simulation time: 0 hr 18 min 21 sec) 
Heartbeat CPU 0 instructions: 70000003 cycles: 31337855 heartbeat IPC: 1.4701 cumulative IPC: 1.45789 (Simulation time: 0 hr 21 min 4 sec) 
Heartbeat CPU 0 instructions: 80000002 cycles: 38222423 heartbeat IPC: 1.45252 cumulative IPC: 1.4561 (Simulation time: 0 hr 23 min 31 sec) 
Heartbeat CPU 0 instructions: 90000002 cycles: 45016254 heartbeat IPC: 1.47192 cumulative IPC: 1.46002 (Simulation time: 0 hr 25 min 32 sec) 
Heartbeat CPU 0 instructions: 100000000 cycles: 51882694 heartbeat IPC: 1.45636 cumulative IPC: 1.45929 (Simulation time: 0 hr 26 min 38 sec) 
Finished CPU 0 instructions: 50000000 cycles: 34263287 cumulative IPC: 1.45929 (Simulation time: 0 hr 26 min 38 sec) 

ChampSim completed all CPUs

Region of Interest Statistics

CPU 0 cumulative IPC: 1.45929 instructions: 50000000 cycles: 34263287
L1D TOTAL     ACCESS:   19754325  HIT:   18109364  MISS:    1644961
L1D LOAD      ACCESS:    6925283  HIT:    6196689  MISS:     728594
L1D RFO       ACCESS:    6240071  HIT:    5953829  MISS:     286242
L1D PREFETCH  ACCESS:    6588971  HIT:    5958846  MISS:     630125
L1D WRITEBACK ACCESS:          0  HIT:          0  MISS:          0
L1D PREFETCH  REQUESTED:    6972787  ISSUED:    6830277  USEFUL:     152473  USELESS:     477662
L1D AVERAGE MISS LATENCY: 24.3796 cycles
L1I TOTAL     ACCESS:   15783910  HIT:   12632744  MISS:    3151166
L1I LOAD      ACCESS:    9507502  HIT:    9456406  MISS:      51096
L1I RFO       ACCESS:          0  HIT:          0  MISS:          0
L1I PREFETCH  ACCESS:    6276408  HIT:    3176338  MISS:    3100070
L1I WRITEBACK ACCESS:          0  HIT:          0  MISS:          0
L1I PREFETCH  REQUESTED:    6637655  ISSUED:    6574150  USEFUL:    2731296  USELESS:     368745
L1I AVERAGE MISS LATENCY: 19.9847 cycles
L2C TOTAL     ACCESS:    6712953  HIT:    5795572  MISS:     917381
L2C LOAD      ACCESS:     724182  HIT:     573231  MISS:     150951
L2C RFO       ACCESS:     284526  HIT:     182643  MISS:     101883
L2C PREFETCH  ACCESS:    5143064  HIT:    4483377  MISS:     659687
L2C WRITEBACK ACCESS:     561181  HIT:     556321  MISS:       4860
L2C PREFETCH  REQUESTED:    4871399  ISSUED:    4864718  USEFUL:      12468  USELESS:     647036
L2C AVERAGE MISS LATENCY: 37.5097 cycles
LLC TOTAL     ACCESS:    2463033  HIT:    2426926  MISS:      36107
LLC LOAD      ACCESS:     150683  HIT:     147189  MISS:       3494
LLC RFO       ACCESS:     101879  HIT:      87353  MISS:      14526
LLC PREFETCH  ACCESS:    2038211  HIT:    2020302  MISS:      17909
LLC WRITEBACK ACCESS:     172260  HIT:     172082  MISS:        178
LLC PREFETCH  REQUESTED:          0  ISSUED:          0  USEFUL:       1085  USELESS:      16559
LLC AVERAGE MISS LATENCY: 187.819 cycles
Major fault: 0 Minor fault: 2174
CPU 0 L1D next line prefetcher final stats

DRAM Statistics
 CHANNEL 0
 RQ ROW_BUFFER_HIT:      12565  ROW_BUFFER_MISS:      23361
 DBUS_CONGESTED:      23831
 WQ ROW_BUFFER_HIT:       1485  ROW_BUFFER_MISS:      14698  FULL:          0

 AVG_CONGESTED_CYCLE: 6

CPU 0 Branch Prediction Accuracy: 99.822% MPKI: 0.32584 Average ROB Occupancy at Mispredict: 201.711

Branch types
NOT_BRANCH: 40848584 81.6972%
BRANCH_DIRECT_JUMP: 522045 1.04409%
BRANCH_INDIRECT: 204034 0.408068%
BRANCH_CONDITIONAL: 6212964 12.4259%
BRANCH_DIRECT_CALL: 932393 1.86479%
BRANCH_INDIRECT_CALL: 173764 0.347528%
BRANCH_RETURN: 1106152 2.2123%
BRANCH_OTHER: 0 0%

