Initialize SIGNATURE TABLE
ST_SET: 1
ST_WAY: 256
ST_TAG_BIT: 16
ST_TAG_MASK: ffff

Initialize PATTERN TABLE
PT_SET: 512
PT_WAY: 4
SIG_DELTA_BIT: 7
C_SIG_BIT: 4
C_DELTA_BIT: 4

Initialize PREFETCH FILTER
FILTER_SET: 1024

*** ChampSim Multicore Out-of-Order Simulator ***

Warmup Instructions: 50000000
Simulation Instructions: 50000000
Number of CPUs: 1
LLC sets: 2048
LLC ways: 16
Off-chip DRAM Size: 4096 MB Channels: 1 Width: 64-bit Data Rate: 3200 MT/s

CPU 0 runs /home/ChampSim-master//dpc3_traces/server_002.champsimtrace.xz
CPU 0 EPI prefetcher
CPU 0 L1D next line prefetcher
Heartbeat CPU 0 instructions: 10000000 cycles: 3581230 heartbeat IPC: 2.79234 cumulative IPC: 2.79234 (Simulation time: 0 hr 3 min 36 sec) 
Heartbeat CPU 0 instructions: 20000002 cycles: 7170180 heartbeat IPC: 2.78633 cumulative IPC: 2.78933 (Simulation time: 0 hr 7 min 4 sec) 
Heartbeat CPU 0 instructions: 30000000 cycles: 10710911 heartbeat IPC: 2.82428 cumulative IPC: 2.80088 (Simulation time: 0 hr 10 min 57 sec) 
Heartbeat CPU 0 instructions: 40000000 cycles: 14261156 heartbeat IPC: 2.81671 cumulative IPC: 2.80482 (Simulation time: 0 hr 14 min 14 sec) 
Heartbeat CPU 0 instructions: 50000001 cycles: 17808927 heartbeat IPC: 2.81867 cumulative IPC: 2.80758 (Simulation time: 0 hr 17 min 30 sec) 

Warmup complete CPU 0 instructions: 50000001 cycles: 17808927 (Simulation time: 0 hr 17 min 30 sec) 

Heartbeat CPU 0 instructions: 60000000 cycles: 24251076 heartbeat IPC: 1.55228 cumulative IPC: 1.55228 (Simulation time: 0 hr 20 min 45 sec) 
Heartbeat CPU 0 instructions: 70000003 cycles: 30685083 heartbeat IPC: 1.55424 cumulative IPC: 1.55326 (Simulation time: 0 hr 23 min 58 sec) 
Heartbeat CPU 0 instructions: 80000003 cycles: 37121882 heartbeat IPC: 1.55357 cumulative IPC: 1.55336 (Simulation time: 0 hr 27 min 13 sec) 
Heartbeat CPU 0 instructions: 90000002 cycles: 43555711 heartbeat IPC: 1.55428 cumulative IPC: 1.55359 (Simulation time: 0 hr 29 min 43 sec) 
Heartbeat CPU 0 instructions: 100000003 cycles: 49989290 heartbeat IPC: 1.55434 cumulative IPC: 1.55374 (Simulation time: 0 hr 30 min 55 sec) 
Finished CPU 0 instructions: 50000002 cycles: 32180363 cumulative IPC: 1.55374 (Simulation time: 0 hr 30 min 55 sec) 

ChampSim completed all CPUs

Region of Interest Statistics

CPU 0 cumulative IPC: 1.55374 instructions: 50000002 cycles: 32180363
L1D TOTAL     ACCESS:   21525151  HIT:   21524342  MISS:        809
L1D LOAD      ACCESS:    6602260  HIT:    6601883  MISS:        377
L1D RFO       ACCESS:    8433021  HIT:    8432909  MISS:        112
L1D PREFETCH  ACCESS:    6489870  HIT:    6489550  MISS:        320
L1D WRITEBACK ACCESS:          0  HIT:          0  MISS:          0
L1D PREFETCH  REQUESTED:    6602309  ISSUED:    6497251  USEFUL:         90  USELESS:        231
L1D AVERAGE MISS LATENCY: 43.6922 cycles
L1I TOTAL     ACCESS:   47107061  HIT:   45508009  MISS:    1599052
L1I LOAD      ACCESS:    9871111  HIT:    9851728  MISS:      19383
L1I RFO       ACCESS:          0  HIT:          0  MISS:          0
L1I PREFETCH  ACCESS:   37235950  HIT:   35656281  MISS:    1579669
L1I WRITEBACK ACCESS:          0  HIT:          0  MISS:          0
L1I PREFETCH  REQUESTED:   47356201  ISSUED:   47356201  USEFUL:    1129290  USELESS:     450399
L1I AVERAGE MISS LATENCY: 14.2139 cycles
L2C TOTAL     ACCESS:    2105024  HIT:    2104669  MISS:        355
L2C LOAD      ACCESS:      19586  HIT:      19516  MISS:         70
L2C RFO       ACCESS:        112  HIT:        109  MISS:          3
L2C PREFETCH  ACCESS:    2084990  HIT:    2084711  MISS:        279
L2C WRITEBACK ACCESS:        336  HIT:        333  MISS:          3
L2C PREFETCH  REQUESTED:     863182  ISSUED:     863153  USEFUL:         60  USELESS:        143
L2C AVERAGE MISS LATENCY: 127.296 cycles
LLC TOTAL     ACCESS:     105340  HIT:     104458  MISS:        882
LLC LOAD      ACCESS:         70  HIT:         57  MISS:         13
LLC RFO       ACCESS:          3  HIT:          1  MISS:          2
LLC PREFETCH  ACCESS:     105147  HIT:     104284  MISS:        863
LLC WRITEBACK ACCESS:        120  HIT:        116  MISS:          4
LLC PREFETCH  REQUESTED:          0  ISSUED:          0  USEFUL:         10  USELESS:        226
LLC AVERAGE MISS LATENCY: 563.727 cycles
Major fault: 0 Minor fault: 1867
CPU 0 L1I EPI prefetcher final stats
CPU 0 L1D next line prefetcher final stats

DRAM Statistics
 CHANNEL 0
 RQ ROW_BUFFER_HIT:        179  ROW_BUFFER_MISS:        699
 DBUS_CONGESTED:        568
 WQ ROW_BUFFER_HIT:         64  ROW_BUFFER_MISS:        522  FULL:          0

 AVG_CONGESTED_CYCLE: 6

CPU 0 Branch Prediction Accuracy: 99.8789% MPKI: 0.20388 Average ROB Occupancy at Mispredict: 277.351

Branch types
NOT_BRANCH: 41580695 83.1614%
BRANCH_DIRECT_JUMP: 461630 0.92326%
BRANCH_INDIRECT: 0 0%
BRANCH_CONDITIONAL: 5376437 10.7529%
BRANCH_DIRECT_CALL: 1175775 2.35155%
BRANCH_INDIRECT_CALL: 114840 0.22968%
BRANCH_RETURN: 1290625 2.58125%
BRANCH_OTHER: 0 0%

