Initialize SIGNATURE TABLE
ST_SET: 1
ST_WAY: 256
ST_TAG_BIT: 16
ST_TAG_MASK: ffff

Initialize PATTERN TABLE
PT_SET: 512
PT_WAY: 4
SIG_DELTA_BIT: 7
C_SIG_BIT: 4
C_DELTA_BIT: 4

Initialize PREFETCH FILTER
FILTER_SET: 1024

*** ChampSim Multicore Out-of-Order Simulator ***

Warmup Instructions: 50000000
Simulation Instructions: 50000000
Number of CPUs: 1
LLC sets: 2048
LLC ways: 16
Off-chip DRAM Size: 4096 MB Channels: 1 Width: 64-bit Data Rate: 3200 MT/s

CPU 0 runs /home/ChampSim-master//dpc3_traces/server_015.champsimtrace.xz
L1I D-JOLT instruction prefetcher has been constructed!
CPU 0 L1D next line prefetcher
Heartbeat CPU 0 instructions: 10000002 cycles: 3519412 heartbeat IPC: 2.84138 cumulative IPC: 2.84138 (Simulation time: 0 hr 2 min 44 sec) 
Heartbeat CPU 0 instructions: 20000001 cycles: 7107109 heartbeat IPC: 2.7873 cumulative IPC: 2.81408 (Simulation time: 0 hr 5 min 25 sec) 
Heartbeat CPU 0 instructions: 30000001 cycles: 10646092 heartbeat IPC: 2.82567 cumulative IPC: 2.81794 (Simulation time: 0 hr 8 min 7 sec) 
Heartbeat CPU 0 instructions: 40000002 cycles: 14194133 heartbeat IPC: 2.81846 cumulative IPC: 2.81807 (Simulation time: 0 hr 10 min 53 sec) 
Heartbeat CPU 0 instructions: 50000002 cycles: 17742393 heartbeat IPC: 2.81828 cumulative IPC: 2.81811 (Simulation time: 0 hr 13 min 45 sec) 

Warmup complete CPU 0 instructions: 50000002 cycles: 17742393 (Simulation time: 0 hr 13 min 45 sec) 

Heartbeat CPU 0 instructions: 60000002 cycles: 24040779 heartbeat IPC: 1.58771 cumulative IPC: 1.58771 (Simulation time: 0 hr 16 min 23 sec) 
Heartbeat CPU 0 instructions: 70000003 cycles: 30349848 heartbeat IPC: 1.58502 cumulative IPC: 1.58636 (Simulation time: 0 hr 18 min 58 sec) 
Heartbeat CPU 0 instructions: 80000000 cycles: 36658915 heartbeat IPC: 1.58502 cumulative IPC: 1.58592 (Simulation time: 0 hr 21 min 22 sec) 
Heartbeat CPU 0 instructions: 90000000 cycles: 42970821 heartbeat IPC: 1.58431 cumulative IPC: 1.58551 (Simulation time: 0 hr 23 min 30 sec) 
Heartbeat CPU 0 instructions: 100000002 cycles: 49280589 heartbeat IPC: 1.58484 cumulative IPC: 1.58538 (Simulation time: 0 hr 24 min 38 sec) 
Finished CPU 0 instructions: 50000000 cycles: 31538196 cumulative IPC: 1.58538 (Simulation time: 0 hr 24 min 38 sec) 

ChampSim completed all CPUs

Region of Interest Statistics

CPU 0 cumulative IPC: 1.58538 instructions: 50000000 cycles: 31538196
L1D TOTAL     ACCESS:   21835772  HIT:   21819006  MISS:      16766
L1D LOAD      ACCESS:    6695346  HIT:    6694816  MISS:        530
L1D RFO       ACCESS:    8561390  HIT:    8561295  MISS:         95
L1D PREFETCH  ACCESS:    6579036  HIT:    6562895  MISS:      16141
L1D WRITEBACK ACCESS:          0  HIT:          0  MISS:          0
L1D PREFETCH  REQUESTED:    6695406  ISSUED:    6583439  USEFUL:         84  USELESS:      16054
L1D AVERAGE MISS LATENCY: 16.435 cycles
L1I TOTAL     ACCESS:   19302225  HIT:   15833496  MISS:    3468729
L1I LOAD      ACCESS:    9812664  HIT:    9812343  MISS:        321
L1I RFO       ACCESS:          0  HIT:          0  MISS:          0
L1I PREFETCH  ACCESS:    9489561  HIT:    6021153  MISS:    3468408
L1I WRITEBACK ACCESS:          0  HIT:          0  MISS:          0
L1I PREFETCH  REQUESTED:    9743442  ISSUED:    9717837  USEFUL:    2564935  USELESS:     903454
L1I AVERAGE MISS LATENCY: 14.4258 cycles
L2C TOTAL     ACCESS:    4771762  HIT:    4771454  MISS:        308
L2C LOAD      ACCESS:        788  HIT:        718  MISS:         70
L2C RFO       ACCESS:         94  HIT:         85  MISS:          9
L2C PREFETCH  ACCESS:    4770531  HIT:    4770302  MISS:        229
L2C WRITEBACK ACCESS:        349  HIT:        349  MISS:          0
L2C PREFETCH  REQUESTED:    3724085  ISSUED:    3722239  USEFUL:        129  USELESS:        129
L2C AVERAGE MISS LATENCY: 151.831 cycles
LLC TOTAL     ACCESS:     701259  HIT:     700508  MISS:        751
LLC LOAD      ACCESS:         70  HIT:         55  MISS:         15
LLC RFO       ACCESS:          9  HIT:          7  MISS:          2
LLC PREFETCH  ACCESS:     701084  HIT:     700351  MISS:        733
LLC WRITEBACK ACCESS:         96  HIT:         95  MISS:          1
LLC PREFETCH  REQUESTED:          0  ISSUED:          0  USEFUL:         12  USELESS:        181
LLC AVERAGE MISS LATENCY: 375.202 cycles
Major fault: 0 Minor fault: 1893
CPU 0 L1D next line prefetcher final stats

DRAM Statistics
 CHANNEL 0
 RQ ROW_BUFFER_HIT:        162  ROW_BUFFER_MISS:        588
 DBUS_CONGESTED:        495
 WQ ROW_BUFFER_HIT:         89  ROW_BUFFER_MISS:        438  FULL:          0

 AVG_CONGESTED_CYCLE: 6

CPU 0 Branch Prediction Accuracy: 99.9085% MPKI: 0.15428 Average ROB Occupancy at Mispredict: 297.641

Branch types
NOT_BRANCH: 41573150 83.1463%
BRANCH_DIRECT_JUMP: 436254 0.872508%
BRANCH_INDIRECT: 0 0%
BRANCH_CONDITIONAL: 5395898 10.7918%
BRANCH_DIRECT_CALL: 1173391 2.34678%
BRANCH_INDIRECT_CALL: 123912 0.247824%
BRANCH_RETURN: 1297311 2.59462%
BRANCH_OTHER: 0 0%

