Initialize SIGNATURE TABLE
ST_SET: 1
ST_WAY: 256
ST_TAG_BIT: 16
ST_TAG_MASK: ffff

Initialize PATTERN TABLE
PT_SET: 512
PT_WAY: 4
SIG_DELTA_BIT: 7
C_SIG_BIT: 4
C_DELTA_BIT: 4

Initialize PREFETCH FILTER
FILTER_SET: 1024

*** ChampSim Multicore Out-of-Order Simulator ***

Warmup Instructions: 50000000
Simulation Instructions: 50000000
Number of CPUs: 1
LLC sets: 2048
LLC ways: 16
Off-chip DRAM Size: 4096 MB Channels: 1 Width: 64-bit Data Rate: 3200 MT/s

CPU 0 runs /home/ChampSim-master//dpc3_traces/server_015.champsimtrace.xz
L1I D-JOLT instruction prefetcher has been constructed!
CPU 0 L1D next line prefetcher
Heartbeat CPU 0 instructions: 10000002 cycles: 3519435 heartbeat IPC: 2.84137 cumulative IPC: 2.84137 (Simulation time: 0 hr 3 min 33 sec) 
Heartbeat CPU 0 instructions: 20000001 cycles: 7107156 heartbeat IPC: 2.78728 cumulative IPC: 2.81407 (Simulation time: 0 hr 6 min 44 sec) 
Heartbeat CPU 0 instructions: 30000001 cycles: 10646115 heartbeat IPC: 2.82569 cumulative IPC: 2.81793 (Simulation time: 0 hr 9 min 39 sec) 
Heartbeat CPU 0 instructions: 40000002 cycles: 14194156 heartbeat IPC: 2.81846 cumulative IPC: 2.81806 (Simulation time: 0 hr 13 min 12 sec) 
Heartbeat CPU 0 instructions: 50000002 cycles: 17742416 heartbeat IPC: 2.81828 cumulative IPC: 2.81811 (Simulation time: 0 hr 16 min 9 sec) 

Warmup complete CPU 0 instructions: 50000002 cycles: 17742416 (Simulation time: 0 hr 16 min 9 sec) 

Heartbeat CPU 0 instructions: 60000002 cycles: 24038466 heartbeat IPC: 1.5883 cumulative IPC: 1.5883 (Simulation time: 0 hr 19 min 24 sec) 
Heartbeat CPU 0 instructions: 70000003 cycles: 30346915 heartbeat IPC: 1.58518 cumulative IPC: 1.58674 (Simulation time: 0 hr 22 min 12 sec) 
Heartbeat CPU 0 instructions: 80000000 cycles: 36655454 heartbeat IPC: 1.58515 cumulative IPC: 1.58621 (Simulation time: 0 hr 24 min 49 sec) 
Heartbeat CPU 0 instructions: 90000000 cycles: 42967094 heartbeat IPC: 1.58437 cumulative IPC: 1.58575 (Simulation time: 0 hr 26 min 41 sec) 
Heartbeat CPU 0 instructions: 100000002 cycles: 49276307 heartbeat IPC: 1.58498 cumulative IPC: 1.5856 (Simulation time: 0 hr 27 min 25 sec) 
Finished CPU 0 instructions: 50000000 cycles: 31533891 cumulative IPC: 1.5856 (Simulation time: 0 hr 27 min 25 sec) 

ChampSim completed all CPUs

Region of Interest Statistics

CPU 0 cumulative IPC: 1.5856 instructions: 50000000 cycles: 31533891
L1D TOTAL     ACCESS:   21832628  HIT:   21815861  MISS:      16767
L1D LOAD      ACCESS:    6693625  HIT:    6693096  MISS:        529
L1D RFO       ACCESS:    8561387  HIT:    8561292  MISS:         95
L1D PREFETCH  ACCESS:    6577616  HIT:    6561473  MISS:      16143
L1D WRITEBACK ACCESS:          0  HIT:          0  MISS:          0
L1D PREFETCH  REQUESTED:    6693686  ISSUED:    6582017  USEFUL:         85  USELESS:      16055
L1D AVERAGE MISS LATENCY: 16.2142 cycles
L1I TOTAL     ACCESS:   20064800  HIT:   15988103  MISS:    4076697
L1I LOAD      ACCESS:    9812770  HIT:    9785521  MISS:      27249
L1I RFO       ACCESS:          0  HIT:          0  MISS:          0
L1I PREFETCH  ACCESS:   10252030  HIT:    6202582  MISS:    4049448
L1I WRITEBACK ACCESS:          0  HIT:          0  MISS:          0
L1I PREFETCH  REQUESTED:   10716793  ISSUED:   10555140  USEFUL:    2786918  USELESS:    1262531
L1I AVERAGE MISS LATENCY: 14.4524 cycles
L2C TOTAL     ACCESS:    5881310  HIT:    5881009  MISS:        301
L2C LOAD      ACCESS:      27514  HIT:      27439  MISS:         75
L2C RFO       ACCESS:         94  HIT:         89  MISS:          5
L2C PREFETCH  ACCESS:    5853353  HIT:    5853132  MISS:        221
L2C WRITEBACK ACCESS:        349  HIT:        349  MISS:          0
L2C PREFETCH  REQUESTED:    4137022  ISSUED:    4135906  USEFUL:        123  USELESS:        116
L2C AVERAGE MISS LATENCY: 101.252 cycles
LLC TOTAL     ACCESS:     647763  HIT:     647126  MISS:        637
LLC LOAD      ACCESS:         75  HIT:         60  MISS:         15
LLC RFO       ACCESS:          5  HIT:          3  MISS:          2
LLC PREFETCH  ACCESS:     647579  HIT:     646959  MISS:        620
LLC WRITEBACK ACCESS:        104  HIT:        104  MISS:          0
LLC PREFETCH  REQUESTED:          0  ISSUED:          0  USEFUL:         11  USELESS:        141
LLC AVERAGE MISS LATENCY: 261.033 cycles
Major fault: 0 Minor fault: 1892
CPU 0 L1D next line prefetcher final stats

DRAM Statistics
 CHANNEL 0
 RQ ROW_BUFFER_HIT:        110  ROW_BUFFER_MISS:        527
 DBUS_CONGESTED:        371
 WQ ROW_BUFFER_HIT:         62  ROW_BUFFER_MISS:        393  FULL:          0

 AVG_CONGESTED_CYCLE: 6

CPU 0 Branch Prediction Accuracy: 99.9085% MPKI: 0.15428 Average ROB Occupancy at Mispredict: 296.565

Branch types
NOT_BRANCH: 41573145 83.1463%
BRANCH_DIRECT_JUMP: 436254 0.872508%
BRANCH_INDIRECT: 0 0%
BRANCH_CONDITIONAL: 5395897 10.7918%
BRANCH_DIRECT_CALL: 1173391 2.34678%
BRANCH_INDIRECT_CALL: 123912 0.247824%
BRANCH_RETURN: 1297311 2.59462%
BRANCH_OTHER: 0 0%

