Initialize SIGNATURE TABLE
ST_SET: 1
ST_WAY: 256
ST_TAG_BIT: 16
ST_TAG_MASK: ffff

Initialize PATTERN TABLE
PT_SET: 512
PT_WAY: 4
SIG_DELTA_BIT: 7
C_SIG_BIT: 4
C_DELTA_BIT: 4

Initialize PREFETCH FILTER
FILTER_SET: 1024

*** ChampSim Multicore Out-of-Order Simulator ***

Warmup Instructions: 50000000
Simulation Instructions: 50000000
Number of CPUs: 1
LLC sets: 2048
LLC ways: 16
Off-chip DRAM Size: 4096 MB Channels: 1 Width: 64-bit Data Rate: 3200 MT/s

CPU 0 runs /home/ChampSim-master//dpc3_traces/server_027.champsimtrace.xz
L1I D-JOLT instruction prefetcher has been constructed!
CPU 0 L1D next line prefetcher
Heartbeat CPU 0 instructions: 10000001 cycles: 3524688 heartbeat IPC: 2.83713 cumulative IPC: 2.83713 (Simulation time: 0 hr 3 min 2 sec) 
Heartbeat CPU 0 instructions: 20000001 cycles: 7054525 heartbeat IPC: 2.83299 cumulative IPC: 2.83506 (Simulation time: 0 hr 6 min 4 sec) 
Heartbeat CPU 0 instructions: 30000002 cycles: 10580093 heartbeat IPC: 2.83642 cumulative IPC: 2.83551 (Simulation time: 0 hr 9 min 17 sec) 
Heartbeat CPU 0 instructions: 40000000 cycles: 14111117 heartbeat IPC: 2.83204 cumulative IPC: 2.83464 (Simulation time: 0 hr 12 min 49 sec) 
Heartbeat CPU 0 instructions: 50000001 cycles: 17635617 heartbeat IPC: 2.83728 cumulative IPC: 2.83517 (Simulation time: 0 hr 15 min 53 sec) 

Warmup complete CPU 0 instructions: 50000001 cycles: 17635617 (Simulation time: 0 hr 15 min 53 sec) 

Heartbeat CPU 0 instructions: 60000002 cycles: 24502984 heartbeat IPC: 1.45616 cumulative IPC: 1.45616 (Simulation time: 0 hr 19 min 6 sec) 
Heartbeat CPU 0 instructions: 70000003 cycles: 31314851 heartbeat IPC: 1.46803 cumulative IPC: 1.46207 (Simulation time: 0 hr 22 min 17 sec) 
Heartbeat CPU 0 instructions: 80000002 cycles: 38135718 heartbeat IPC: 1.46609 cumulative IPC: 1.46341 (Simulation time: 0 hr 25 min 8 sec) 
Heartbeat CPU 0 instructions: 90000001 cycles: 45048157 heartbeat IPC: 1.44667 cumulative IPC: 1.45919 (Simulation time: 0 hr 27 min 29 sec) 
Heartbeat CPU 0 instructions: 100000002 cycles: 51846589 heartbeat IPC: 1.47093 cumulative IPC: 1.46152 (Simulation time: 0 hr 29 min 6 sec) 
Finished CPU 0 instructions: 50000001 cycles: 34210972 cumulative IPC: 1.46152 (Simulation time: 0 hr 29 min 6 sec) 

ChampSim completed all CPUs

Region of Interest Statistics

CPU 0 cumulative IPC: 1.46152 instructions: 50000001 cycles: 34210972
L1D TOTAL     ACCESS:   19874858  HIT:   18273173  MISS:    1601685
L1D LOAD      ACCESS:    6939472  HIT:    6246667  MISS:     692805
L1D RFO       ACCESS:    6285173  HIT:    6000120  MISS:     285053
L1D PREFETCH  ACCESS:    6650213  HIT:    6026386  MISS:     623827
L1D WRITEBACK ACCESS:          0  HIT:          0  MISS:          0
L1D PREFETCH  REQUESTED:    6984717  ISSUED:    6857402  USEFUL:     148871  USELESS:     474967
L1D AVERAGE MISS LATENCY: 24.1059 cycles
L1I TOTAL     ACCESS:   15872927  HIT:   12589126  MISS:    3283801
L1I LOAD      ACCESS:    9492523  HIT:    9441727  MISS:      50796
L1I RFO       ACCESS:          0  HIT:          0  MISS:          0
L1I PREFETCH  ACCESS:    6380404  HIT:    3147399  MISS:    3233005
L1I WRITEBACK ACCESS:          0  HIT:          0  MISS:          0
L1I PREFETCH  REQUESTED:    6826157  ISSUED:    6734465  USEFUL:    2761787  USELESS:     471248
L1I AVERAGE MISS LATENCY: 20.2469 cycles
L2C TOTAL     ACCESS:    6736845  HIT:    5798028  MISS:     938817
L2C LOAD      ACCESS:     704716  HIT:     557217  MISS:     147499
L2C RFO       ACCESS:     283559  HIT:     191605  MISS:      91954
L2C PREFETCH  ACCESS:    5189370  HIT:    4494827  MISS:     694543
L2C WRITEBACK ACCESS:     559200  HIT:     554379  MISS:       4821
L2C PREFETCH  REQUESTED:    4528575  ISSUED:    4519604  USEFUL:      10897  USELESS:     683465
L2C AVERAGE MISS LATENCY: 36.9946 cycles
LLC TOTAL     ACCESS:    2479956  HIT:    2444747  MISS:      35209
LLC LOAD      ACCESS:     147283  HIT:     143636  MISS:       3647
LLC RFO       ACCESS:      91954  HIT:      78006  MISS:      13948
LLC PREFETCH  ACCESS:    2078711  HIT:    2061297  MISS:      17414
LLC WRITEBACK ACCESS:     162008  HIT:     161808  MISS:        200
LLC PREFETCH  REQUESTED:          0  ISSUED:          0  USEFUL:       1364  USELESS:      16004
LLC AVERAGE MISS LATENCY: 181.044 cycles
Major fault: 0 Minor fault: 2484
CPU 0 L1D next line prefetcher final stats

DRAM Statistics
 CHANNEL 0
 RQ ROW_BUFFER_HIT:      11294  ROW_BUFFER_MISS:      23713
 DBUS_CONGESTED:      22819
 WQ ROW_BUFFER_HIT:       1567  ROW_BUFFER_MISS:      14588  FULL:          0

 AVG_CONGESTED_CYCLE: 6

CPU 0 Branch Prediction Accuracy: 99.8082% MPKI: 0.35064 Average ROB Occupancy at Mispredict: 186.812

Branch types
NOT_BRANCH: 40857505 81.715%
BRANCH_DIRECT_JUMP: 526635 1.05327%
BRANCH_INDIRECT: 205902 0.411804%
BRANCH_CONDITIONAL: 6184049 12.3681%
BRANCH_DIRECT_CALL: 938467 1.87693%
BRANCH_INDIRECT_CALL: 174486 0.348972%
BRANCH_RETURN: 1112959 2.22592%
BRANCH_OTHER: 0 0%

