Initialize SIGNATURE TABLE
ST_SET: 1
ST_WAY: 256
ST_TAG_BIT: 16
ST_TAG_MASK: ffff

Initialize PATTERN TABLE
PT_SET: 512
PT_WAY: 4
SIG_DELTA_BIT: 7
C_SIG_BIT: 4
C_DELTA_BIT: 4

Initialize PREFETCH FILTER
FILTER_SET: 1024

*** ChampSim Multicore Out-of-Order Simulator ***

Warmup Instructions: 50000000
Simulation Instructions: 50000000
Number of CPUs: 1
LLC sets: 2048
LLC ways: 16
Off-chip DRAM Size: 4096 MB Channels: 1 Width: 64-bit Data Rate: 3200 MT/s

CPU 0 runs /home/ChampSim-master//dpc3_traces/server_022.champsimtrace.xz
L1I D-JOLT instruction prefetcher has been constructed!
CPU 0 L1D next line prefetcher
Heartbeat CPU 0 instructions: 10000002 cycles: 3624255 heartbeat IPC: 2.75919 cumulative IPC: 2.75919 (Simulation time: 0 hr 3 min 23 sec) 
Heartbeat CPU 0 instructions: 20000001 cycles: 7255188 heartbeat IPC: 2.75411 cumulative IPC: 2.75665 (Simulation time: 0 hr 7 min 12 sec) 
Heartbeat CPU 0 instructions: 30000003 cycles: 10879695 heartbeat IPC: 2.759 cumulative IPC: 2.75743 (Simulation time: 0 hr 10 min 14 sec) 
Heartbeat CPU 0 instructions: 40000003 cycles: 14511828 heartbeat IPC: 2.7532 cumulative IPC: 2.75637 (Simulation time: 0 hr 13 min 29 sec) 
Heartbeat CPU 0 instructions: 50000002 cycles: 18134121 heartbeat IPC: 2.76068 cumulative IPC: 2.75723 (Simulation time: 0 hr 16 min 38 sec) 

Warmup complete CPU 0 instructions: 50000002 cycles: 18134121 (Simulation time: 0 hr 16 min 38 sec) 

Heartbeat CPU 0 instructions: 60000000 cycles: 34945518 heartbeat IPC: 0.594834 cumulative IPC: 0.594834 (Simulation time: 0 hr 20 min 45 sec) 
Heartbeat CPU 0 instructions: 70000001 cycles: 52074135 heartbeat IPC: 0.583818 cumulative IPC: 0.589275 (Simulation time: 0 hr 24 min 3 sec) 
Heartbeat CPU 0 instructions: 80000001 cycles: 68902887 heartbeat IPC: 0.594221 cumulative IPC: 0.590914 (Simulation time: 0 hr 26 min 13 sec) 
Heartbeat CPU 0 instructions: 90000003 cycles: 86037057 heartbeat IPC: 0.583629 cumulative IPC: 0.589076 (Simulation time: 0 hr 27 min 6 sec) 
Heartbeat CPU 0 instructions: 100000003 cycles: 102888104 heartbeat IPC: 0.593435 cumulative IPC: 0.589943 (Simulation time: 0 hr 27 min 36 sec) 
Finished CPU 0 instructions: 50000001 cycles: 84753983 cumulative IPC: 0.589943 (Simulation time: 0 hr 27 min 36 sec) 

ChampSim completed all CPUs

Region of Interest Statistics

CPU 0 cumulative IPC: 0.589943 instructions: 50000001 cycles: 84753983
L1D TOTAL     ACCESS:   18691438  HIT:   16480642  MISS:    2210796
L1D LOAD      ACCESS:    7050682  HIT:    6344636  MISS:     706046
L1D RFO       ACCESS:    5889730  HIT:    4910372  MISS:     979358
L1D PREFETCH  ACCESS:    5751026  HIT:    5225634  MISS:     525392
L1D WRITEBACK ACCESS:          0  HIT:          0  MISS:          0
L1D PREFETCH  REQUESTED:    7092731  ISSUED:    6885666  USEFUL:     204147  USELESS:     321250
L1D AVERAGE MISS LATENCY: 181.796 cycles
L1I TOTAL     ACCESS:   18905793  HIT:   15416428  MISS:    3489365
L1I LOAD      ACCESS:   10167506  HIT:   10126519  MISS:      40987
L1I RFO       ACCESS:          0  HIT:          0  MISS:          0
L1I PREFETCH  ACCESS:    8738287  HIT:    5289909  MISS:    3448378
L1I WRITEBACK ACCESS:          0  HIT:          0  MISS:          0
L1I PREFETCH  REQUESTED:    9440498  ISSUED:    9347046  USEFUL:    2759217  USELESS:     689167
L1I AVERAGE MISS LATENCY: 17.7105 cycles
L2C TOTAL     ACCESS:    8368988  HIT:    6495422  MISS:    1873566
L2C LOAD      ACCESS:     508877  HIT:     261949  MISS:     246928
L2C RFO       ACCESS:     978858  HIT:      20316  MISS:     958542
L2C PREFETCH  ACCESS:    5696186  HIT:    5031459  MISS:     664727
L2C WRITEBACK ACCESS:    1185067  HIT:    1181698  MISS:       3369
L2C PREFETCH  REQUESTED:    4968380  ISSUED:    4962249  USEFUL:      19377  USELESS:     645313
L2C AVERAGE MISS LATENCY: 220.988 cycles
LLC TOTAL     ACCESS:    4300784  HIT:    2878727  MISS:    1422057
LLC LOAD      ACCESS:     246860  HIT:     171967  MISS:      74893
LLC RFO       ACCESS:     958534  HIT:     140587  MISS:     817947
LLC PREFETCH  ACCESS:    1976753  HIT:    1449798  MISS:     526955
LLC WRITEBACK ACCESS:    1118637  HIT:    1116375  MISS:       2262
LLC PREFETCH  REQUESTED:          0  ISSUED:          0  USEFUL:      30666  USELESS:     496722
LLC AVERAGE MISS LATENCY: 295.585 cycles
Major fault: 0 Minor fault: 23508
CPU 0 L1D next line prefetcher final stats

DRAM Statistics
 CHANNEL 0
 RQ ROW_BUFFER_HIT:     403992  ROW_BUFFER_MISS:    1015495
 DBUS_CONGESTED:    1463564
 WQ ROW_BUFFER_HIT:     261767  ROW_BUFFER_MISS:     643697  FULL:          0

 AVG_CONGESTED_CYCLE: 6

CPU 0 Branch Prediction Accuracy: 99.8317% MPKI: 0.27564 Average ROB Occupancy at Mispredict: 223.11

Branch types
NOT_BRANCH: 41811174 83.6223%
BRANCH_DIRECT_JUMP: 445742 0.891484%
BRANCH_INDIRECT: 48876 0.097752%
BRANCH_CONDITIONAL: 5859411 11.7188%
BRANCH_DIRECT_CALL: 758268 1.51654%
BRANCH_INDIRECT_CALL: 159103 0.318206%
BRANCH_RETURN: 917373 1.83475%
BRANCH_OTHER: 0 0%

