Initialize SIGNATURE TABLE
ST_SET: 1
ST_WAY: 256
ST_TAG_BIT: 16
ST_TAG_MASK: ffff

Initialize PATTERN TABLE
PT_SET: 512
PT_WAY: 4
SIG_DELTA_BIT: 7
C_SIG_BIT: 4
C_DELTA_BIT: 4

Initialize PREFETCH FILTER
FILTER_SET: 1024

*** ChampSim Multicore Out-of-Order Simulator ***

Warmup Instructions: 50000000
Simulation Instructions: 50000000
Number of CPUs: 1
LLC sets: 2048
LLC ways: 16
Off-chip DRAM Size: 4096 MB Channels: 1 Width: 64-bit Data Rate: 3200 MT/s

CPU 0 runs /home/ChampSim-master//dpc3_traces/server_024.champsimtrace.xz
CPU 0 EPI prefetcher
CPU 0 L1D next line prefetcher
Heartbeat CPU 0 instructions: 10000000 cycles: 3498264 heartbeat IPC: 2.85856 cumulative IPC: 2.85856 (Simulation time: 0 hr 3 min 4 sec) 
Heartbeat CPU 0 instructions: 20000002 cycles: 6989088 heartbeat IPC: 2.86465 cumulative IPC: 2.8616 (Simulation time: 0 hr 6 min 8 sec) 
Heartbeat CPU 0 instructions: 30000000 cycles: 10489627 heartbeat IPC: 2.8567 cumulative IPC: 2.85997 (Simulation time: 0 hr 9 min 38 sec) 
Heartbeat CPU 0 instructions: 40000000 cycles: 13987417 heartbeat IPC: 2.85895 cumulative IPC: 2.85971 (Simulation time: 0 hr 12 min 41 sec) 
Heartbeat CPU 0 instructions: 50000001 cycles: 17475274 heartbeat IPC: 2.86709 cumulative IPC: 2.86119 (Simulation time: 0 hr 15 min 43 sec) 

Warmup complete CPU 0 instructions: 50000001 cycles: 17475274 (Simulation time: 0 hr 15 min 43 sec) 

Heartbeat CPU 0 instructions: 60000003 cycles: 24229275 heartbeat IPC: 1.4806 cumulative IPC: 1.4806 (Simulation time: 0 hr 18 min 35 sec) 
Heartbeat CPU 0 instructions: 70000000 cycles: 31001463 heartbeat IPC: 1.47663 cumulative IPC: 1.47861 (Simulation time: 0 hr 21 min 26 sec) 
*** Reached end of trace for Core: 0 Repeating trace: /home/ChampSim-master//dpc3_traces/server_024.champsimtrace.xz
Heartbeat CPU 0 instructions: 80000003 cycles: 37751305 heartbeat IPC: 1.48152 cumulative IPC: 1.47958 (Simulation time: 0 hr 24 min 17 sec) 
Heartbeat CPU 0 instructions: 90000003 cycles: 44554561 heartbeat IPC: 1.46988 cumulative IPC: 1.47714 (Simulation time: 0 hr 26 min 59 sec) 
Heartbeat CPU 0 instructions: 100000002 cycles: 51317800 heartbeat IPC: 1.47858 cumulative IPC: 1.47743 (Simulation time: 0 hr 29 min 1 sec) 
Finished CPU 0 instructions: 50000001 cycles: 33842526 cumulative IPC: 1.47743 (Simulation time: 0 hr 29 min 1 sec) 

ChampSim completed all CPUs

Region of Interest Statistics

CPU 0 cumulative IPC: 1.47743 instructions: 50000001 cycles: 33842526
L1D TOTAL     ACCESS:   19655353  HIT:   18137829  MISS:    1517524
L1D LOAD      ACCESS:    6917969  HIT:    6236774  MISS:     681195
L1D RFO       ACCESS:    6149627  HIT:    5875964  MISS:     273663
L1D PREFETCH  ACCESS:    6587757  HIT:    6025091  MISS:     562666
L1D WRITEBACK ACCESS:          0  HIT:          0  MISS:          0
L1D PREFETCH  REQUESTED:    6972104  ISSUED:    6850498  USEFUL:     135219  USELESS:     427451
L1D AVERAGE MISS LATENCY: 25.1224 cycles
L1I TOTAL     ACCESS:   28360494  HIT:   25260111  MISS:    3100383
L1I LOAD      ACCESS:    9322751  HIT:    9266573  MISS:      56178
L1I RFO       ACCESS:          0  HIT:          0  MISS:          0
L1I PREFETCH  ACCESS:   19037743  HIT:   15993538  MISS:    3044205
L1I WRITEBACK ACCESS:          0  HIT:          0  MISS:          0
L1I PREFETCH  REQUESTED:   24196859  ISSUED:   24196859  USEFUL:    2499660  USELESS:     544516
L1I AVERAGE MISS LATENCY: 18.8786 cycles
L2C TOTAL     ACCESS:    6311775  HIT:    5604160  MISS:     707615
L2C LOAD      ACCESS:     645597  HIT:     523545  MISS:     122052
L2C RFO       ACCESS:     272206  HIT:     185239  MISS:      86967
L2C PREFETCH  ACCESS:    4873784  HIT:    4378437  MISS:     495347
L2C WRITEBACK ACCESS:     520188  HIT:     516939  MISS:       3249
L2C PREFETCH  REQUESTED:    5200042  ISSUED:    5192572  USEFUL:      14948  USELESS:     479722
L2C AVERAGE MISS LATENCY: 43.7431 cycles
LLC TOTAL     ACCESS:    2242151  HIT:    2189649  MISS:      52502
LLC LOAD      ACCESS:     121815  HIT:     116448  MISS:       5367
LLC RFO       ACCESS:      86947  HIT:      64963  MISS:      21984
LLC PREFETCH  ACCESS:    1893749  HIT:    1868889  MISS:      24860
LLC WRITEBACK ACCESS:     139640  HIT:     139349  MISS:        291
LLC PREFETCH  REQUESTED:          0  ISSUED:          0  USEFUL:       2272  USELESS:      22531
LLC AVERAGE MISS LATENCY: 196.611 cycles
Major fault: 0 Minor fault: 2365
CPU 0 L1I EPI prefetcher final stats
CPU 0 L1D next line prefetcher final stats

DRAM Statistics
 CHANNEL 0
 RQ ROW_BUFFER_HIT:      17715  ROW_BUFFER_MISS:      34482
 DBUS_CONGESTED:      37833
 WQ ROW_BUFFER_HIT:       2718  ROW_BUFFER_MISS:      22762  FULL:          0

 AVG_CONGESTED_CYCLE: 6

CPU 0 Branch Prediction Accuracy: 99.7477% MPKI: 0.46156 Average ROB Occupancy at Mispredict: 175.042

Branch types
NOT_BRANCH: 40853668 81.7073%
BRANCH_DIRECT_JUMP: 566818 1.13364%
BRANCH_INDIRECT: 197171 0.394342%
BRANCH_CONDITIONAL: 6308417 12.6168%
BRANCH_DIRECT_CALL: 876400 1.7528%
BRANCH_INDIRECT_CALL: 160491 0.320982%
BRANCH_RETURN: 1036885 2.07377%
BRANCH_OTHER: 0 0%

