Initialize SIGNATURE TABLE
ST_SET: 1
ST_WAY: 256
ST_TAG_BIT: 16
ST_TAG_MASK: ffff

Initialize PATTERN TABLE
PT_SET: 512
PT_WAY: 4
SIG_DELTA_BIT: 7
C_SIG_BIT: 4
C_DELTA_BIT: 4

Initialize PREFETCH FILTER
FILTER_SET: 1024

*** ChampSim Multicore Out-of-Order Simulator ***

Warmup Instructions: 50000000
Simulation Instructions: 50000000
Number of CPUs: 1
LLC sets: 2048
LLC ways: 16
Off-chip DRAM Size: 4096 MB Channels: 1 Width: 64-bit Data Rate: 3200 MT/s

CPU 0 runs /home/ChampSim-master//dpc3_traces/server_035.champsimtrace.xz
L1I D-JOLT instruction prefetcher has been constructed!
CPU 0 L1D next line prefetcher
Heartbeat CPU 0 instructions: 10000001 cycles: 3339206 heartbeat IPC: 2.99472 cumulative IPC: 2.99472 (Simulation time: 0 hr 3 min 5 sec) 
Heartbeat CPU 0 instructions: 20000000 cycles: 6677790 heartbeat IPC: 2.99528 cumulative IPC: 2.995 (Simulation time: 0 hr 5 min 53 sec) 
Heartbeat CPU 0 instructions: 30000000 cycles: 10013555 heartbeat IPC: 2.99781 cumulative IPC: 2.99594 (Simulation time: 0 hr 8 min 55 sec) 
Heartbeat CPU 0 instructions: 40000000 cycles: 13353957 heartbeat IPC: 2.99365 cumulative IPC: 2.99537 (Simulation time: 0 hr 11 min 43 sec) 
Heartbeat CPU 0 instructions: 50000003 cycles: 16692193 heartbeat IPC: 2.99559 cumulative IPC: 2.99541 (Simulation time: 0 hr 14 min 25 sec) 

Warmup complete CPU 0 instructions: 50000003 cycles: 16692193 (Simulation time: 0 hr 14 min 25 sec) 

Heartbeat CPU 0 instructions: 60000001 cycles: 25225497 heartbeat IPC: 1.17188 cumulative IPC: 1.17188 (Simulation time: 0 hr 17 min 9 sec) 
Heartbeat CPU 0 instructions: 70000003 cycles: 33374748 heartbeat IPC: 1.22711 cumulative IPC: 1.19886 (Simulation time: 0 hr 19 min 44 sec) 
Heartbeat CPU 0 instructions: 80000001 cycles: 41663467 heartbeat IPC: 1.20646 cumulative IPC: 1.20138 (Simulation time: 0 hr 22 min 16 sec) 
Heartbeat CPU 0 instructions: 90000002 cycles: 49305151 heartbeat IPC: 1.30861 cumulative IPC: 1.22651 (Simulation time: 0 hr 24 min 5 sec) 
Heartbeat CPU 0 instructions: 100000002 cycles: 57601822 heartbeat IPC: 1.2053 cumulative IPC: 1.22221 (Simulation time: 0 hr 24 min 52 sec) 
Finished CPU 0 instructions: 50000003 cycles: 40909630 cumulative IPC: 1.22221 (Simulation time: 0 hr 24 min 52 sec) 

ChampSim completed all CPUs

Region of Interest Statistics

CPU 0 cumulative IPC: 1.22221 instructions: 50000003 cycles: 40909630
L1D TOTAL     ACCESS:   18195421  HIT:   16691140  MISS:    1504281
L1D LOAD      ACCESS:    6128138  HIT:    5426088  MISS:     702050
L1D RFO       ACCESS:    6154868  HIT:    6002676  MISS:     152192
L1D PREFETCH  ACCESS:    5912415  HIT:    5262376  MISS:     650039
L1D WRITEBACK ACCESS:          0  HIT:          0  MISS:          0
L1D PREFETCH  REQUESTED:    6172599  ISSUED:    6071862  USEFUL:     138312  USELESS:     511732
L1D AVERAGE MISS LATENCY: 44.1474 cycles
L1I TOTAL     ACCESS:   18633766  HIT:   14669499  MISS:    3964267
L1I LOAD      ACCESS:    9713050  HIT:    9678382  MISS:      34668
L1I RFO       ACCESS:          0  HIT:          0  MISS:          0
L1I PREFETCH  ACCESS:    8920716  HIT:    4991117  MISS:    3929599
L1I WRITEBACK ACCESS:          0  HIT:          0  MISS:          0
L1I PREFETCH  REQUESTED:    9508271  ISSUED:    9382660  USEFUL:    3354686  USELESS:     574885
L1I AVERAGE MISS LATENCY: 16.3187 cycles
L2C TOTAL     ACCESS:    7430156  HIT:    7086785  MISS:     343371
L2C LOAD      ACCESS:     721117  HIT:     589641  MISS:     131476
L2C RFO       ACCESS:     150318  HIT:     129590  MISS:      20728
L2C PREFETCH  ACCESS:    6193544  HIT:    6004512  MISS:     189032
L2C WRITEBACK ACCESS:     365177  HIT:     363042  MISS:       2135
L2C PREFETCH  REQUESTED:    5973090  ISSUED:    5956687  USEFUL:      13344  USELESS:     175695
L2C AVERAGE MISS LATENCY: 146.24 cycles
LLC TOTAL     ACCESS:    2241898  HIT:    1953260  MISS:     288638
LLC LOAD      ACCESS:     131056  HIT:      47729  MISS:      83327
LLC RFO       ACCESS:      20722  HIT:       9451  MISS:      11271
LLC PREFETCH  ACCESS:    1986555  HIT:    1793581  MISS:     192974
LLC WRITEBACK ACCESS:     103565  HIT:     102499  MISS:       1066
LLC PREFETCH  REQUESTED:          0  ISSUED:          0  USEFUL:      31311  USELESS:     160444
LLC AVERAGE MISS LATENCY: 218.05 cycles
Major fault: 0 Minor fault: 5549
CPU 0 L1D next line prefetcher final stats

DRAM Statistics
 CHANNEL 0
 RQ ROW_BUFFER_HIT:      72350  ROW_BUFFER_MISS:     215216
 DBUS_CONGESTED:     165221
 WQ ROW_BUFFER_HIT:      18369  ROW_BUFFER_MISS:      73170  FULL:          0

 AVG_CONGESTED_CYCLE: 5

CPU 0 Branch Prediction Accuracy: 99.9115% MPKI: 0.17232 Average ROB Occupancy at Mispredict: 219.12

Branch types
NOT_BRANCH: 40267412 80.5348%
BRANCH_DIRECT_JUMP: 771900 1.5438%
BRANCH_INDIRECT: 108179 0.216358%
BRANCH_CONDITIONAL: 6307188 12.6144%
BRANCH_DIRECT_CALL: 1060898 2.1218%
BRANCH_INDIRECT_CALL: 211720 0.42344%
BRANCH_RETURN: 1272639 2.54528%
BRANCH_OTHER: 0 0%

