Initialize SIGNATURE TABLE
ST_SET: 1
ST_WAY: 256
ST_TAG_BIT: 16
ST_TAG_MASK: ffff

Initialize PATTERN TABLE
PT_SET: 512
PT_WAY: 4
SIG_DELTA_BIT: 7
C_SIG_BIT: 4
C_DELTA_BIT: 4

Initialize PREFETCH FILTER
FILTER_SET: 1024

*** ChampSim Multicore Out-of-Order Simulator ***

Warmup Instructions: 50000000
Simulation Instructions: 50000000
Number of CPUs: 1
LLC sets: 2048
LLC ways: 16
Off-chip DRAM Size: 4096 MB Channels: 1 Width: 64-bit Data Rate: 3200 MT/s

CPU 0 runs /home/ChampSim-master//dpc3_traces/server_013.champsimtrace.xz
CPU 0 EPI prefetcher
CPU 0 L1D next line prefetcher
Heartbeat CPU 0 instructions: 10000000 cycles: 3213529 heartbeat IPC: 3.11184 cumulative IPC: 3.11184 (Simulation time: 0 hr 3 min 16 sec) 
Heartbeat CPU 0 instructions: 20000001 cycles: 6415506 heartbeat IPC: 3.12307 cumulative IPC: 3.11745 (Simulation time: 0 hr 6 min 16 sec) 
Heartbeat CPU 0 instructions: 30000002 cycles: 9620718 heartbeat IPC: 3.11992 cumulative IPC: 3.11827 (Simulation time: 0 hr 9 min 29 sec) 
Heartbeat CPU 0 instructions: 40000002 cycles: 12821863 heartbeat IPC: 3.12388 cumulative IPC: 3.11967 (Simulation time: 0 hr 12 min 25 sec) 
Heartbeat CPU 0 instructions: 50000000 cycles: 16022437 heartbeat IPC: 3.12444 cumulative IPC: 3.12062 (Simulation time: 0 hr 15 min 20 sec) 

Warmup complete CPU 0 instructions: 50000004 cycles: 16022438 (Simulation time: 0 hr 15 min 20 sec) 

Heartbeat CPU 0 instructions: 60000002 cycles: 24798093 heartbeat IPC: 1.13952 cumulative IPC: 1.13952 (Simulation time: 0 hr 17 min 56 sec) 
Heartbeat CPU 0 instructions: 70000003 cycles: 33686135 heartbeat IPC: 1.12511 cumulative IPC: 1.13227 (Simulation time: 0 hr 20 min 25 sec) 
Heartbeat CPU 0 instructions: 80000003 cycles: 42091287 heartbeat IPC: 1.18975 cumulative IPC: 1.1508 (Simulation time: 0 hr 22 min 49 sec) 
Heartbeat CPU 0 instructions: 90000003 cycles: 50664628 heartbeat IPC: 1.16641 cumulative IPC: 1.15466 (Simulation time: 0 hr 25 min 10 sec) 
Heartbeat CPU 0 instructions: 100000003 cycles: 59257954 heartbeat IPC: 1.16369 cumulative IPC: 1.15646 (Simulation time: 0 hr 27 min 4 sec) 
Finished CPU 0 instructions: 50000003 cycles: 43235517 cumulative IPC: 1.15646 (Simulation time: 0 hr 27 min 4 sec) 

ChampSim completed all CPUs

Region of Interest Statistics

CPU 0 cumulative IPC: 1.15646 instructions: 50000003 cycles: 43235517
L1D TOTAL     ACCESS:   17759768  HIT:   16693280  MISS:    1066488
L1D LOAD      ACCESS:    6522696  HIT:    6029249  MISS:     493447
L1D RFO       ACCESS:    4947160  HIT:    4867250  MISS:      79910
L1D PREFETCH  ACCESS:    6289912  HIT:    5796781  MISS:     493131
L1D WRITEBACK ACCESS:          0  HIT:          0  MISS:          0
L1D PREFETCH  REQUESTED:    6557162  ISSUED:    6455382  USEFUL:     141543  USELESS:     351597
L1D AVERAGE MISS LATENCY: 41.6964 cycles
L1I TOTAL     ACCESS:   24327903  HIT:   22717929  MISS:    1609974
L1I LOAD      ACCESS:    8541275  HIT:    8146409  MISS:     394866
L1I RFO       ACCESS:          0  HIT:          0  MISS:          0
L1I PREFETCH  ACCESS:   15786628  HIT:   14571520  MISS:    1215108
L1I WRITEBACK ACCESS:          0  HIT:          0  MISS:          0
L1I PREFETCH  REQUESTED:   19026641  ISSUED:   19026641  USEFUL:     992896  USELESS:     222206
L1I AVERAGE MISS LATENCY: 32.7898 cycles
L2C TOTAL     ACCESS:    3701251  HIT:    2377785  MISS:    1323466
L2C LOAD      ACCESS:     829648  HIT:     355065  MISS:     474583
L2C RFO       ACCESS:      78747  HIT:      31146  MISS:      47601
L2C PREFETCH  ACCESS:    2517092  HIT:    1717334  MISS:     799758
L2C WRITEBACK ACCESS:     275764  HIT:     274240  MISS:       1524
L2C PREFETCH  REQUESTED:    3882401  ISSUED:    3873063  USEFUL:      54670  USELESS:     744513
L2C AVERAGE MISS LATENCY: 44.9066 cycles
LLC TOTAL     ACCESS:    2975500  HIT:    2787201  MISS:     188299
LLC LOAD      ACCESS:     453732  HIT:     426114  MISS:      27618
LLC RFO       ACCESS:      47585  HIT:      37570  MISS:      10015
LLC PREFETCH  ACCESS:    2302932  HIT:    2152758  MISS:     150174
LLC WRITEBACK ACCESS:     171251  HIT:     170759  MISS:        492
LLC PREFETCH  REQUESTED:          0  ISSUED:          0  USEFUL:      18815  USELESS:     129094
LLC AVERAGE MISS LATENCY: 173.955 cycles
Major fault: 0 Minor fault: 6201
CPU 0 L1I EPI prefetcher final stats
CPU 0 L1D next line prefetcher final stats

DRAM Statistics
 CHANNEL 0
 RQ ROW_BUFFER_HIT:      32738  ROW_BUFFER_MISS:     155054
 DBUS_CONGESTED:      84991
 WQ ROW_BUFFER_HIT:      11919  ROW_BUFFER_MISS:      53743  FULL:          0

 AVG_CONGESTED_CYCLE: 5

CPU 0 Branch Prediction Accuracy: 99.4114% MPKI: 1.0933 Average ROB Occupancy at Mispredict: 106.824

Branch types
NOT_BRANCH: 40713089 81.4262%
BRANCH_DIRECT_JUMP: 463697 0.927394%
BRANCH_INDIRECT: 146542 0.293084%
BRANCH_CONDITIONAL: 6981929 13.9639%
BRANCH_DIRECT_CALL: 665003 1.33001%
BRANCH_INDIRECT_CALL: 165150 0.3303%
BRANCH_RETURN: 864309 1.72862%
BRANCH_OTHER: 0 0%

