Initialize SIGNATURE TABLE
ST_SET: 1
ST_WAY: 256
ST_TAG_BIT: 16
ST_TAG_MASK: ffff

Initialize PATTERN TABLE
PT_SET: 512
PT_WAY: 4
SIG_DELTA_BIT: 7
C_SIG_BIT: 4
C_DELTA_BIT: 4

Initialize PREFETCH FILTER
FILTER_SET: 1024

*** ChampSim Multicore Out-of-Order Simulator ***

Warmup Instructions: 50000000
Simulation Instructions: 50000000
Number of CPUs: 1
LLC sets: 2048
LLC ways: 16
Off-chip DRAM Size: 4096 MB Channels: 1 Width: 64-bit Data Rate: 3200 MT/s

CPU 0 runs /home/ChampSim-master//dpc3_traces/server_020.champsimtrace.xz
L1I D-JOLT instruction prefetcher has been constructed!
CPU 0 L1D next line prefetcher
Heartbeat CPU 0 instructions: 10000003 cycles: 3622212 heartbeat IPC: 2.76074 cumulative IPC: 2.76074 (Simulation time: 0 hr 2 min 55 sec) 
Heartbeat CPU 0 instructions: 20000002 cycles: 7249245 heartbeat IPC: 2.75707 cumulative IPC: 2.75891 (Simulation time: 0 hr 5 min 56 sec) 
Heartbeat CPU 0 instructions: 30000001 cycles: 10870181 heartbeat IPC: 2.76172 cumulative IPC: 2.75984 (Simulation time: 0 hr 9 min 35 sec) 
Heartbeat CPU 0 instructions: 40000002 cycles: 14491995 heartbeat IPC: 2.76105 cumulative IPC: 2.76014 (Simulation time: 0 hr 13 min 9 sec) 
Heartbeat CPU 0 instructions: 50000001 cycles: 18126576 heartbeat IPC: 2.75135 cumulative IPC: 2.75838 (Simulation time: 0 hr 15 min 57 sec) 

Warmup complete CPU 0 instructions: 50000001 cycles: 18126576 (Simulation time: 0 hr 15 min 57 sec) 

Heartbeat CPU 0 instructions: 60000003 cycles: 35593316 heartbeat IPC: 0.572517 cumulative IPC: 0.572517 (Simulation time: 0 hr 19 min 25 sec) 
Heartbeat CPU 0 instructions: 70000002 cycles: 53092767 heartbeat IPC: 0.571446 cumulative IPC: 0.571981 (Simulation time: 0 hr 22 min 42 sec) 
Heartbeat CPU 0 instructions: 80000002 cycles: 70490082 heartbeat IPC: 0.574801 cumulative IPC: 0.572918 (Simulation time: 0 hr 25 min 22 sec) 
Heartbeat CPU 0 instructions: 90000001 cycles: 87949809 heartbeat IPC: 0.572747 cumulative IPC: 0.572875 (Simulation time: 0 hr 26 min 34 sec) 
Heartbeat CPU 0 instructions: 100000002 cycles: 105368042 heartbeat IPC: 0.574111 cumulative IPC: 0.573122 (Simulation time: 0 hr 27 min 7 sec) 
Finished CPU 0 instructions: 50000001 cycles: 87241466 cumulative IPC: 0.573122 (Simulation time: 0 hr 27 min 7 sec) 

ChampSim completed all CPUs

Region of Interest Statistics

CPU 0 cumulative IPC: 0.573122 instructions: 50000001 cycles: 87241466
L1D TOTAL     ACCESS:   18624826  HIT:   16420656  MISS:    2204170
L1D LOAD      ACCESS:    7046037  HIT:    6324872  MISS:     721165
L1D RFO       ACCESS:    5803291  HIT:    4857235  MISS:     946056
L1D PREFETCH  ACCESS:    5775498  HIT:    5238549  MISS:     536949
L1D WRITEBACK ACCESS:          0  HIT:          0  MISS:          0
L1D PREFETCH  REQUESTED:    7088014  ISSUED:    6887919  USEFUL:     197719  USELESS:     339149
L1D AVERAGE MISS LATENCY: 178.549 cycles
L1I TOTAL     ACCESS:   19080793  HIT:   15523528  MISS:    3557265
L1I LOAD      ACCESS:   10113697  HIT:   10068445  MISS:      45252
L1I RFO       ACCESS:          0  HIT:          0  MISS:          0
L1I PREFETCH  ACCESS:    8967096  HIT:    5455083  MISS:    3512013
L1I WRITEBACK ACCESS:          0  HIT:          0  MISS:          0
L1I PREFETCH  REQUESTED:    9652743  ISSUED:    9562934  USEFUL:    2724371  USELESS:     787655
L1I AVERAGE MISS LATENCY: 17.9663 cycles
L2C TOTAL     ACCESS:    8485531  HIT:    6623113  MISS:    1862418
L2C LOAD      ACCESS:     533789  HIT:     266282  MISS:     267507
L2C RFO       ACCESS:     945553  HIT:      18930  MISS:     926623
L2C PREFETCH  ACCESS:    5842567  HIT:    5177486  MISS:     665081
L2C WRITEBACK ACCESS:    1163622  HIT:    1160415  MISS:       3207
L2C PREFETCH  REQUESTED:    5115671  ISSUED:    5111954  USEFUL:      21236  USELESS:     642677
L2C AVERAGE MISS LATENCY: 217.123 cycles
LLC TOTAL     ACCESS:    4169182  HIT:    2725006  MISS:    1444176
LLC LOAD      ACCESS:     267421  HIT:     165711  MISS:     101710
LLC RFO       ACCESS:     926621  HIT:     138057  MISS:     788564
LLC PREFETCH  ACCESS:    1874347  HIT:    1322703  MISS:     551644
LLC WRITEBACK ACCESS:    1100793  HIT:    1098535  MISS:       2258
LLC PREFETCH  REQUESTED:          0  ISSUED:          0  USEFUL:      30290  USELESS:     521725
LLC AVERAGE MISS LATENCY: 285.74 cycles
Major fault: 0 Minor fault: 22094
CPU 0 L1D next line prefetcher final stats

DRAM Statistics
 CHANNEL 0
 RQ ROW_BUFFER_HIT:     403740  ROW_BUFFER_MISS:    1037811
 DBUS_CONGESTED:    1446230
 WQ ROW_BUFFER_HIT:     251706  ROW_BUFFER_MISS:     639460  FULL:          0

 AVG_CONGESTED_CYCLE: 6

CPU 0 Branch Prediction Accuracy: 99.712% MPKI: 0.47638 Average ROB Occupancy at Mispredict: 215.46

Branch types
NOT_BRANCH: 41729528 83.4591%
BRANCH_DIRECT_JUMP: 458221 0.916442%
BRANCH_INDIRECT: 49088 0.098176%
BRANCH_CONDITIONAL: 5938533 11.8771%
BRANCH_DIRECT_CALL: 745132 1.49026%
BRANCH_INDIRECT_CALL: 167109 0.334218%
BRANCH_RETURN: 912223 1.82445%
BRANCH_OTHER: 0 0%

