Initialize SIGNATURE TABLE
ST_SET: 1
ST_WAY: 256
ST_TAG_BIT: 16
ST_TAG_MASK: ffff

Initialize PATTERN TABLE
PT_SET: 512
PT_WAY: 4
SIG_DELTA_BIT: 7
C_SIG_BIT: 4
C_DELTA_BIT: 4

Initialize PREFETCH FILTER
FILTER_SET: 1024

*** ChampSim Multicore Out-of-Order Simulator ***

Warmup Instructions: 50000000
Simulation Instructions: 50000000
Number of CPUs: 1
LLC sets: 2048
LLC ways: 16
Off-chip DRAM Size: 4096 MB Channels: 1 Width: 64-bit Data Rate: 3200 MT/s

CPU 0 runs /home/ChampSim-master//dpc3_traces/server_018.champsimtrace.xz
L1I D-JOLT instruction prefetcher has been constructed!
CPU 0 L1D next line prefetcher
Heartbeat CPU 0 instructions: 10000003 cycles: 3616392 heartbeat IPC: 2.76519 cumulative IPC: 2.76519 (Simulation time: 0 hr 3 min 14 sec) 
Heartbeat CPU 0 instructions: 20000001 cycles: 7237893 heartbeat IPC: 2.76129 cumulative IPC: 2.76324 (Simulation time: 0 hr 6 min 23 sec) 
Heartbeat CPU 0 instructions: 30000003 cycles: 10713076 heartbeat IPC: 2.87755 cumulative IPC: 2.80032 (Simulation time: 0 hr 9 min 14 sec) 
Heartbeat CPU 0 instructions: 40000000 cycles: 14225158 heartbeat IPC: 2.84731 cumulative IPC: 2.81192 (Simulation time: 0 hr 12 min 14 sec) 
Heartbeat CPU 0 instructions: 50000003 cycles: 17842745 heartbeat IPC: 2.76427 cumulative IPC: 2.80226 (Simulation time: 0 hr 15 min 17 sec) 

Warmup complete CPU 0 instructions: 50000003 cycles: 17842745 (Simulation time: 0 hr 15 min 17 sec) 

Heartbeat CPU 0 instructions: 60000000 cycles: 35298794 heartbeat IPC: 0.572867 cumulative IPC: 0.572867 (Simulation time: 0 hr 18 min 48 sec) 
Heartbeat CPU 0 instructions: 70000001 cycles: 52739105 heartbeat IPC: 0.573384 cumulative IPC: 0.573126 (Simulation time: 0 hr 22 min 20 sec) 
Heartbeat CPU 0 instructions: 80000000 cycles: 70154758 heartbeat IPC: 0.574196 cumulative IPC: 0.573482 (Simulation time: 0 hr 25 min 15 sec) 
Heartbeat CPU 0 instructions: 90000002 cycles: 87588063 heartbeat IPC: 0.573615 cumulative IPC: 0.573515 (Simulation time: 0 hr 26 min 41 sec) 
Heartbeat CPU 0 instructions: 100000001 cycles: 105048852 heartbeat IPC: 0.572712 cumulative IPC: 0.573354 (Simulation time: 0 hr 27 min 14 sec) 
Finished CPU 0 instructions: 50000002 cycles: 87206109 cumulative IPC: 0.573354 (Simulation time: 0 hr 27 min 14 sec) 

ChampSim completed all CPUs

Region of Interest Statistics

CPU 0 cumulative IPC: 0.573354 instructions: 50000002 cycles: 87206109
L1D TOTAL     ACCESS:   18615871  HIT:   16398137  MISS:    2217734
L1D LOAD      ACCESS:    7042923  HIT:    6321807  MISS:     721116
L1D RFO       ACCESS:    5803987  HIT:    4851759  MISS:     952228
L1D PREFETCH  ACCESS:    5768961  HIT:    5224571  MISS:     544390
L1D WRITEBACK ACCESS:          0  HIT:          0  MISS:          0
L1D PREFETCH  REQUESTED:    7084817  ISSUED:    6881582  USEFUL:     204567  USELESS:     339913
L1D AVERAGE MISS LATENCY: 177.188 cycles
L1I TOTAL     ACCESS:   18573516  HIT:   15119341  MISS:    3454175
L1I LOAD      ACCESS:   10143536  HIT:   10096919  MISS:      46617
L1I RFO       ACCESS:          0  HIT:          0  MISS:          0
L1I PREFETCH  ACCESS:    8429980  HIT:    5022422  MISS:    3407558
L1I WRITEBACK ACCESS:          0  HIT:          0  MISS:          0
L1I PREFETCH  REQUESTED:    8988071  ISSUED:    8942849  USEFUL:    2723469  USELESS:     683990
L1I AVERAGE MISS LATENCY: 17.7304 cycles
L2C TOTAL     ACCESS:    8337657  HIT:    6474422  MISS:    1863235
L2C LOAD      ACCESS:     542266  HIT:     278253  MISS:     264013
L2C RFO       ACCESS:     951751  HIT:      19284  MISS:     932467
L2C PREFETCH  ACCESS:    5673584  HIT:    5010551  MISS:     663033
L2C WRITEBACK ACCESS:    1170056  HIT:    1166334  MISS:       3722
L2C PREFETCH  REQUESTED:    5057951  ISSUED:    5052989  USEFUL:      21318  USELESS:     642920
L2C AVERAGE MISS LATENCY: 215.303 cycles
LLC TOTAL     ACCESS:    4254382  HIT:    2796655  MISS:    1457727
LLC LOAD      ACCESS:     263967  HIT:     164937  MISS:      99030
LLC RFO       ACCESS:     932463  HIT:     137156  MISS:     795307
LLC PREFETCH  ACCESS:    1955007  HIT:    1394001  MISS:     561006
LLC WRITEBACK ACCESS:    1102945  HIT:    1100561  MISS:       2384
LLC PREFETCH  REQUESTED:          0  ISSUED:          0  USEFUL:      32076  USELESS:     529312
LLC AVERAGE MISS LATENCY: 283.817 cycles
Major fault: 0 Minor fault: 22446
CPU 0 L1D next line prefetcher final stats

DRAM Statistics
 CHANNEL 0
 RQ ROW_BUFFER_HIT:     410759  ROW_BUFFER_MISS:    1044314
 DBUS_CONGESTED:    1462115
 WQ ROW_BUFFER_HIT:     254536  ROW_BUFFER_MISS:     643817  FULL:          0

 AVG_CONGESTED_CYCLE: 6

CPU 0 Branch Prediction Accuracy: 99.7114% MPKI: 0.47678 Average ROB Occupancy at Mispredict: 213.054

Branch types
NOT_BRANCH: 41740997 83.482%
BRANCH_DIRECT_JUMP: 458652 0.917304%
BRANCH_INDIRECT: 48282 0.096564%
BRANCH_CONDITIONAL: 5930880 11.8618%
BRANCH_DIRECT_CALL: 744230 1.48846%
BRANCH_INDIRECT_CALL: 166336 0.332672%
BRANCH_RETURN: 910589 1.82118%
BRANCH_OTHER: 0 0%

