Initialize SIGNATURE TABLE
ST_SET: 1
ST_WAY: 256
ST_TAG_BIT: 16
ST_TAG_MASK: ffff

Initialize PATTERN TABLE
PT_SET: 512
PT_WAY: 4
SIG_DELTA_BIT: 7
C_SIG_BIT: 4
C_DELTA_BIT: 4

Initialize PREFETCH FILTER
FILTER_SET: 1024

*** ChampSim Multicore Out-of-Order Simulator ***

Warmup Instructions: 50000000
Simulation Instructions: 50000000
Number of CPUs: 1
LLC sets: 2048
LLC ways: 16
Off-chip DRAM Size: 4096 MB Channels: 1 Width: 64-bit Data Rate: 3200 MT/s

CPU 0 runs /home/ChampSim-master//dpc3_traces/server_001.champsimtrace.xz
L1I D-JOLT instruction prefetcher has been constructed!
CPU 0 L1D next line prefetcher
Heartbeat CPU 0 instructions: 10000002 cycles: 3154791 heartbeat IPC: 3.16978 cumulative IPC: 3.16978 (Simulation time: 0 hr 2 min 23 sec) 
Heartbeat CPU 0 instructions: 20000000 cycles: 6369157 heartbeat IPC: 3.11103 cumulative IPC: 3.14013 (Simulation time: 0 hr 5 min 12 sec) 
Heartbeat CPU 0 instructions: 30000003 cycles: 9554988 heartbeat IPC: 3.1389 cumulative IPC: 3.13972 (Simulation time: 0 hr 7 min 40 sec) 
Heartbeat CPU 0 instructions: 40000002 cycles: 12762002 heartbeat IPC: 3.11817 cumulative IPC: 3.1343 (Simulation time: 0 hr 10 min 9 sec) 
Heartbeat CPU 0 instructions: 50000003 cycles: 15980634 heartbeat IPC: 3.10691 cumulative IPC: 3.12879 (Simulation time: 0 hr 12 min 37 sec) 

Warmup complete CPU 0 instructions: 50000003 cycles: 15980634 (Simulation time: 0 hr 12 min 37 sec) 

Heartbeat CPU 0 instructions: 60000000 cycles: 23132334 heartbeat IPC: 1.39827 cumulative IPC: 1.39827 (Simulation time: 0 hr 14 min 48 sec) 
Heartbeat CPU 0 instructions: 70000001 cycles: 29987908 heartbeat IPC: 1.45867 cumulative IPC: 1.42783 (Simulation time: 0 hr 16 min 52 sec) 
Heartbeat CPU 0 instructions: 80000002 cycles: 36866679 heartbeat IPC: 1.45375 cumulative IPC: 1.43637 (Simulation time: 0 hr 19 min 7 sec) 
Heartbeat CPU 0 instructions: 90000002 cycles: 44043719 heartbeat IPC: 1.39333 cumulative IPC: 1.42536 (Simulation time: 0 hr 21 min 7 sec) 
Heartbeat CPU 0 instructions: 100000003 cycles: 50836618 heartbeat IPC: 1.47213 cumulative IPC: 1.43447 (Simulation time: 0 hr 22 min 55 sec) 
Finished CPU 0 instructions: 50000000 cycles: 34855984 cumulative IPC: 1.43447 (Simulation time: 0 hr 22 min 55 sec) 

ChampSim completed all CPUs

Region of Interest Statistics

CPU 0 cumulative IPC: 1.43447 instructions: 50000000 cycles: 34855984
L1D TOTAL     ACCESS:   17609075  HIT:   17097955  MISS:     511120
L1D LOAD      ACCESS:    6441012  HIT:    6235714  MISS:     205298
L1D RFO       ACCESS:    5052656  HIT:    4969975  MISS:      82681
L1D PREFETCH  ACCESS:    6115407  HIT:    5892266  MISS:     223141
L1D WRITEBACK ACCESS:          0  HIT:          0  MISS:          0
L1D PREFETCH  REQUESTED:    6470343  ISSUED:    6293089  USEFUL:     131434  USELESS:      91835
L1D AVERAGE MISS LATENCY: 95.165 cycles
L1I TOTAL     ACCESS:   14316326  HIT:   13371315  MISS:     945011
L1I LOAD      ACCESS:    8248287  HIT:    8203722  MISS:      44565
L1I RFO       ACCESS:          0  HIT:          0  MISS:          0
L1I PREFETCH  ACCESS:    6068039  HIT:    5167593  MISS:     900446
L1I WRITEBACK ACCESS:          0  HIT:          0  MISS:          0
L1I PREFETCH  REQUESTED:    6252290  ISSUED:    6163470  USEFUL:     674578  USELESS:     225839
L1I AVERAGE MISS LATENCY: 30.6403 cycles
L2C TOTAL     ACCESS:    2252944  HIT:    1773280  MISS:     479664
L2C LOAD      ACCESS:     196878  HIT:      92575  MISS:     104303
L2C RFO       ACCESS:      80912  HIT:      10353  MISS:      70559
L2C PREFETCH  ACCESS:    1767300  HIT:    1462873  MISS:     304427
L2C WRITEBACK ACCESS:     207854  HIT:     207479  MISS:        375
L2C PREFETCH  REQUESTED:    2060953  ISSUED:    2058507  USEFUL:      25221  USELESS:     279388
L2C AVERAGE MISS LATENCY: 124.158 cycles
LLC TOTAL     ACCESS:    1217221  HIT:     881269  MISS:     335952
LLC LOAD      ACCESS:     104148  HIT:      70635  MISS:      33513
LLC RFO       ACCESS:      70559  HIT:       6621  MISS:      63938
LLC PREFETCH  ACCESS:     874850  HIT:     636608  MISS:     238242
LLC WRITEBACK ACCESS:     167664  HIT:     167405  MISS:        259
LLC PREFETCH  REQUESTED:          0  ISSUED:          0  USEFUL:      32098  USELESS:     203125
LLC AVERAGE MISS LATENCY: 227.448 cycles
Major fault: 0 Minor fault: 16710
CPU 0 L1D next line prefetcher final stats

DRAM Statistics
 CHANNEL 0
 RQ ROW_BUFFER_HIT:      99282  ROW_BUFFER_MISS:     236369
 DBUS_CONGESTED:     227517
 WQ ROW_BUFFER_HIT:      36703  ROW_BUFFER_MISS:     122277  FULL:          0

 AVG_CONGESTED_CYCLE: 6

CPU 0 Branch Prediction Accuracy: 99.5889% MPKI: 0.70108 Average ROB Occupancy at Mispredict: 111.931

Branch types
NOT_BRANCH: 41473584 82.9472%
BRANCH_DIRECT_JUMP: 347941 0.695882%
BRANCH_INDIRECT: 148212 0.296424%
BRANCH_CONDITIONAL: 6817277 13.6346%
BRANCH_DIRECT_CALL: 570725 1.14145%
BRANCH_INDIRECT_CALL: 25133 0.050266%
BRANCH_RETURN: 617123 1.23425%
BRANCH_OTHER: 0 0%

