Initialize SIGNATURE TABLE
ST_SET: 1
ST_WAY: 256
ST_TAG_BIT: 16
ST_TAG_MASK: ffff

Initialize PATTERN TABLE
PT_SET: 512
PT_WAY: 4
SIG_DELTA_BIT: 7
C_SIG_BIT: 4
C_DELTA_BIT: 4

Initialize PREFETCH FILTER
FILTER_SET: 1024

*** ChampSim Multicore Out-of-Order Simulator ***

Warmup Instructions: 50000000
Simulation Instructions: 50000000
Number of CPUs: 1
LLC sets: 2048
LLC ways: 16
Off-chip DRAM Size: 4096 MB Channels: 1 Width: 64-bit Data Rate: 3200 MT/s

CPU 0 runs /home/ChampSim-master//dpc3_traces/server_024.champsimtrace.xz
L1I D-JOLT instruction prefetcher has been constructed!
CPU 0 L1D next line prefetcher
Heartbeat CPU 0 instructions: 10000000 cycles: 3497383 heartbeat IPC: 2.85928 cumulative IPC: 2.85928 (Simulation time: 0 hr 2 min 33 sec) 
Heartbeat CPU 0 instructions: 20000002 cycles: 6987662 heartbeat IPC: 2.8651 cumulative IPC: 2.86219 (Simulation time: 0 hr 5 min 32 sec) 
Heartbeat CPU 0 instructions: 30000000 cycles: 10488122 heartbeat IPC: 2.85677 cumulative IPC: 2.86038 (Simulation time: 0 hr 8 min 11 sec) 
Heartbeat CPU 0 instructions: 40000000 cycles: 13986112 heartbeat IPC: 2.85878 cumulative IPC: 2.85998 (Simulation time: 0 hr 10 min 49 sec) 
Heartbeat CPU 0 instructions: 50000001 cycles: 17474356 heartbeat IPC: 2.86677 cumulative IPC: 2.86134 (Simulation time: 0 hr 13 min 24 sec) 

Warmup complete CPU 0 instructions: 50000001 cycles: 17474356 (Simulation time: 0 hr 13 min 24 sec) 

Heartbeat CPU 0 instructions: 60000003 cycles: 24218108 heartbeat IPC: 1.48285 cumulative IPC: 1.48285 (Simulation time: 0 hr 15 min 46 sec) 
Heartbeat CPU 0 instructions: 70000000 cycles: 31005344 heartbeat IPC: 1.47335 cumulative IPC: 1.47809 (Simulation time: 0 hr 18 min 10 sec) 
*** Reached end of trace for Core: 0 Repeating trace: /home/ChampSim-master//dpc3_traces/server_024.champsimtrace.xz
Heartbeat CPU 0 instructions: 80000003 cycles: 37774167 heartbeat IPC: 1.47736 cumulative IPC: 1.47785 (Simulation time: 0 hr 20 min 25 sec) 
Heartbeat CPU 0 instructions: 90000003 cycles: 44595465 heartbeat IPC: 1.466 cumulative IPC: 1.47487 (Simulation time: 0 hr 22 min 36 sec) 
Heartbeat CPU 0 instructions: 100000002 cycles: 51363032 heartbeat IPC: 1.47764 cumulative IPC: 1.47542 (Simulation time: 0 hr 24 min 6 sec) 
Finished CPU 0 instructions: 50000001 cycles: 33888676 cumulative IPC: 1.47542 (Simulation time: 0 hr 24 min 6 sec) 

ChampSim completed all CPUs

Region of Interest Statistics

CPU 0 cumulative IPC: 1.47542 instructions: 50000001 cycles: 33888676
L1D TOTAL     ACCESS:   19649545  HIT:   18132170  MISS:    1517375
L1D LOAD      ACCESS:    6915590  HIT:    6235239  MISS:     680351
L1D RFO       ACCESS:    6149313  HIT:    5875798  MISS:     273515
L1D PREFETCH  ACCESS:    6584642  HIT:    6021133  MISS:     563509
L1D WRITEBACK ACCESS:          0  HIT:          0  MISS:          0
L1D PREFETCH  REQUESTED:    6970608  ISSUED:    6847695  USEFUL:     136102  USELESS:     427412
L1D AVERAGE MISS LATENCY: 25.6463 cycles
L1I TOTAL     ACCESS:   13971688  HIT:   11125831  MISS:    2845857
L1I LOAD      ACCESS:    9342612  HIT:    9303674  MISS:      38938
L1I RFO       ACCESS:          0  HIT:          0  MISS:          0
L1I PREFETCH  ACCESS:    4629076  HIT:    1822157  MISS:    2806919
L1I WRITEBACK ACCESS:          0  HIT:          0  MISS:          0
L1I PREFETCH  REQUESTED:    4823815  ISSUED:    4805184  USEFUL:    2489763  USELESS:     317150
L1I AVERAGE MISS LATENCY: 19.3046 cycles
L2C TOTAL     ACCESS:    6131430  HIT:    5362990  MISS:     768440
L2C LOAD      ACCESS:     648380  HIT:     516625  MISS:     131755
L2C RFO       ACCESS:     272189  HIT:     178472  MISS:      93717
L2C PREFETCH  ACCESS:    4690707  HIT:    4153579  MISS:     537128
L2C WRITEBACK ACCESS:     520154  HIT:     514314  MISS:       5840
L2C PREFETCH  REQUESTED:    4086407  ISSUED:    4080969  USEFUL:      12743  USELESS:     524339
L2C AVERAGE MISS LATENCY: 42.0854 cycles
LLC TOTAL     ACCESS:    2032823  HIT:    1977426  MISS:      55397
LLC LOAD      ACCESS:     131569  HIT:     125907  MISS:       5662
LLC RFO       ACCESS:      93689  HIT:      71425  MISS:      22264
LLC PREFETCH  ACCESS:    1658387  HIT:    1631188  MISS:      27199
LLC WRITEBACK ACCESS:     149178  HIT:     148906  MISS:        272
LLC PREFETCH  REQUESTED:          0  ISSUED:          0  USEFUL:       2090  USELESS:      24588
LLC AVERAGE MISS LATENCY: 195.767 cycles
Major fault: 0 Minor fault: 2373
CPU 0 L1D next line prefetcher final stats

DRAM Statistics
 CHANNEL 0
 RQ ROW_BUFFER_HIT:      17862  ROW_BUFFER_MISS:      37252
 DBUS_CONGESTED:      37604
 WQ ROW_BUFFER_HIT:       2776  ROW_BUFFER_MISS:      23481  FULL:          0

 AVG_CONGESTED_CYCLE: 6

CPU 0 Branch Prediction Accuracy: 99.7477% MPKI: 0.46156 Average ROB Occupancy at Mispredict: 175.425

Branch types
NOT_BRANCH: 40853692 81.7074%
BRANCH_DIRECT_JUMP: 566820 1.13364%
BRANCH_INDIRECT: 197171 0.394342%
BRANCH_CONDITIONAL: 6308426 12.6169%
BRANCH_DIRECT_CALL: 876400 1.7528%
BRANCH_INDIRECT_CALL: 160491 0.320982%
BRANCH_RETURN: 1036885 2.07377%
BRANCH_OTHER: 0 0%

