Initialize SIGNATURE TABLE
ST_SET: 1
ST_WAY: 256
ST_TAG_BIT: 16
ST_TAG_MASK: ffff

Initialize PATTERN TABLE
PT_SET: 512
PT_WAY: 4
SIG_DELTA_BIT: 7
C_SIG_BIT: 4
C_DELTA_BIT: 4

Initialize PREFETCH FILTER
FILTER_SET: 1024

*** ChampSim Multicore Out-of-Order Simulator ***

Warmup Instructions: 50000000
Simulation Instructions: 50000000
Number of CPUs: 1
LLC sets: 2048
LLC ways: 16
Off-chip DRAM Size: 4096 MB Channels: 1 Width: 64-bit Data Rate: 3200 MT/s

CPU 0 runs /home/ChampSim-master//dpc3_traces/server_033.champsimtrace.xz
L1I D-JOLT instruction prefetcher has been constructed!
CPU 0 L1D next line prefetcher
Heartbeat CPU 0 instructions: 10000001 cycles: 3343270 heartbeat IPC: 2.99108 cumulative IPC: 2.99108 (Simulation time: 0 hr 2 min 41 sec) 
Heartbeat CPU 0 instructions: 20000002 cycles: 6684854 heartbeat IPC: 2.99259 cumulative IPC: 2.99184 (Simulation time: 0 hr 5 min 37 sec) 
Heartbeat CPU 0 instructions: 30000001 cycles: 10016578 heartbeat IPC: 3.00145 cumulative IPC: 2.99503 (Simulation time: 0 hr 8 min 30 sec) 
Heartbeat CPU 0 instructions: 40000000 cycles: 13357928 heartbeat IPC: 2.9928 cumulative IPC: 2.99448 (Simulation time: 0 hr 11 min 24 sec) 
Heartbeat CPU 0 instructions: 50000000 cycles: 16698371 heartbeat IPC: 2.99361 cumulative IPC: 2.9943 (Simulation time: 0 hr 14 min 15 sec) 

Warmup complete CPU 0 instructions: 50000004 cycles: 16698372 (Simulation time: 0 hr 14 min 15 sec) 

Heartbeat CPU 0 instructions: 60000000 cycles: 23279543 heartbeat IPC: 1.51949 cumulative IPC: 1.51949 (Simulation time: 0 hr 17 min 8 sec) 
Heartbeat CPU 0 instructions: 70000000 cycles: 29820820 heartbeat IPC: 1.52875 cumulative IPC: 1.52411 (Simulation time: 0 hr 20 min 10 sec) 
Heartbeat CPU 0 instructions: 80000000 cycles: 37191405 heartbeat IPC: 1.35674 cumulative IPC: 1.46391 (Simulation time: 0 hr 23 min 25 sec) 
Heartbeat CPU 0 instructions: 90000003 cycles: 43802890 heartbeat IPC: 1.51252 cumulative IPC: 1.47577 (Simulation time: 0 hr 25 min 46 sec) 
Heartbeat CPU 0 instructions: 100000003 cycles: 50369615 heartbeat IPC: 1.52283 cumulative IPC: 1.48495 (Simulation time: 0 hr 27 min 3 sec) 
Finished CPU 0 instructions: 50000003 cycles: 33671244 cumulative IPC: 1.48495 (Simulation time: 0 hr 27 min 3 sec) 

ChampSim completed all CPUs

Region of Interest Statistics

CPU 0 cumulative IPC: 1.48495 instructions: 50000003 cycles: 33671244
L1D TOTAL     ACCESS:   18225114  HIT:   16742802  MISS:    1482312
L1D LOAD      ACCESS:    6138936  HIT:    5455170  MISS:     683766
L1D RFO       ACCESS:    6162819  HIT:    6013520  MISS:     149299
L1D PREFETCH  ACCESS:    5923359  HIT:    5274112  MISS:     649247
L1D WRITEBACK ACCESS:          0  HIT:          0  MISS:          0
L1D PREFETCH  REQUESTED:    6180501  ISSUED:    6060004  USEFUL:     140991  USELESS:     508262
L1D AVERAGE MISS LATENCY: 24.1509 cycles
L1I TOTAL     ACCESS:   19285802  HIT:   15236782  MISS:    4049020
L1I LOAD      ACCESS:    9693964  HIT:    9646035  MISS:      47929
L1I RFO       ACCESS:          0  HIT:          0  MISS:          0
L1I PREFETCH  ACCESS:    9591838  HIT:    5590747  MISS:    4001091
L1I WRITEBACK ACCESS:          0  HIT:          0  MISS:          0
L1I PREFETCH  REQUESTED:   10181929  ISSUED:   10032570  USEFUL:    3323693  USELESS:     677366
L1I AVERAGE MISS LATENCY: 15.5404 cycles
L2C TOTAL     ACCESS:    7649062  HIT:    7313022  MISS:     336040
L2C LOAD      ACCESS:     719597  HIT:     597100  MISS:     122497
L2C RFO       ACCESS:     147893  HIT:     126029  MISS:      21864
L2C PREFETCH  ACCESS:    6415104  HIT:    6226189  MISS:     188915
L2C WRITEBACK ACCESS:     366468  HIT:     363704  MISS:       2764
L2C PREFETCH  REQUESTED:    5738625  ISSUED:    5715200  USEFUL:       9248  USELESS:     179410
L2C AVERAGE MISS LATENCY: 49.213 cycles
LLC TOTAL     ACCESS:    2155473  HIT:    2090275  MISS:      65198
LLC LOAD      ACCESS:     122417  HIT:     107775  MISS:      14642
LLC RFO       ACCESS:      21864  HIT:      19091  MISS:       2773
LLC PREFETCH  ACCESS:    1902810  HIT:    1855415  MISS:      47395
LLC WRITEBACK ACCESS:     108382  HIT:     107994  MISS:        388
LLC PREFETCH  REQUESTED:          0  ISSUED:          0  USEFUL:       7118  USELESS:      39030
LLC AVERAGE MISS LATENCY: 175.437 cycles
Major fault: 0 Minor fault: 2486
CPU 0 L1D next line prefetcher final stats

DRAM Statistics
 CHANNEL 0
 RQ ROW_BUFFER_HIT:      10239  ROW_BUFFER_MISS:      54564
 DBUS_CONGESTED:      27583
 WQ ROW_BUFFER_HIT:       4105  ROW_BUFFER_MISS:      17927  FULL:          0

 AVG_CONGESTED_CYCLE: 5

CPU 0 Branch Prediction Accuracy: 99.9029% MPKI: 0.19006 Average ROB Occupancy at Mispredict: 257.131

Branch types
NOT_BRANCH: 40217170 80.4343%
BRANCH_DIRECT_JUMP: 774600 1.5492%
BRANCH_INDIRECT: 108806 0.217612%
BRANCH_CONDITIONAL: 6379337 12.7587%
BRANCH_DIRECT_CALL: 1048811 2.09762%
BRANCH_INDIRECT_CALL: 211109 0.422218%
BRANCH_RETURN: 1259926 2.51985%
BRANCH_OTHER: 0 0%

