Initialize SIGNATURE TABLE
ST_SET: 1
ST_WAY: 256
ST_TAG_BIT: 16
ST_TAG_MASK: ffff

Initialize PATTERN TABLE
PT_SET: 512
PT_WAY: 4
SIG_DELTA_BIT: 7
C_SIG_BIT: 4
C_DELTA_BIT: 4

Initialize PREFETCH FILTER
FILTER_SET: 1024

*** ChampSim Multicore Out-of-Order Simulator ***

Warmup Instructions: 50000000
Simulation Instructions: 50000000
Number of CPUs: 1
LLC sets: 2048
LLC ways: 16
Off-chip DRAM Size: 4096 MB Channels: 1 Width: 64-bit Data Rate: 3200 MT/s

CPU 0 runs /home/ChampSim-master//dpc3_traces/server_026.champsimtrace.xz
L1I D-JOLT instruction prefetcher has been constructed!
CPU 0 L1D next line prefetcher
Heartbeat CPU 0 instructions: 10000000 cycles: 3524585 heartbeat IPC: 2.83721 cumulative IPC: 2.83721 (Simulation time: 0 hr 3 min 34 sec) 
Heartbeat CPU 0 instructions: 20000002 cycles: 7054471 heartbeat IPC: 2.83295 cumulative IPC: 2.83508 (Simulation time: 0 hr 6 min 44 sec) 
Heartbeat CPU 0 instructions: 30000000 cycles: 10574167 heartbeat IPC: 2.84115 cumulative IPC: 2.8371 (Simulation time: 0 hr 9 min 43 sec) 
Heartbeat CPU 0 instructions: 40000003 cycles: 14102674 heartbeat IPC: 2.83406 cumulative IPC: 2.83634 (Simulation time: 0 hr 12 min 43 sec) 
Heartbeat CPU 0 instructions: 50000000 cycles: 17623953 heartbeat IPC: 2.83988 cumulative IPC: 2.83705 (Simulation time: 0 hr 15 min 33 sec) 

Warmup complete CPU 0 instructions: 50000004 cycles: 17623954 (Simulation time: 0 hr 15 min 33 sec) 

*** Reached end of trace for Core: 0 Repeating trace: /home/ChampSim-master//dpc3_traces/server_026.champsimtrace.xz
Heartbeat CPU 0 instructions: 60000000 cycles: 24549571 heartbeat IPC: 1.44391 cumulative IPC: 1.44391 (Simulation time: 0 hr 18 min 23 sec) 
Heartbeat CPU 0 instructions: 70000003 cycles: 31361232 heartbeat IPC: 1.46807 cumulative IPC: 1.45589 (Simulation time: 0 hr 21 min 4 sec) 
Heartbeat CPU 0 instructions: 80000002 cycles: 38268023 heartbeat IPC: 1.44785 cumulative IPC: 1.4532 (Simulation time: 0 hr 23 min 39 sec) 
Heartbeat CPU 0 instructions: 90000001 cycles: 45079141 heartbeat IPC: 1.46819 cumulative IPC: 1.45692 (Simulation time: 0 hr 25 min 42 sec) 
Heartbeat CPU 0 instructions: 100000000 cycles: 51969955 heartbeat IPC: 1.45121 cumulative IPC: 1.45577 (Simulation time: 0 hr 26 min 49 sec) 
Finished CPU 0 instructions: 50000000 cycles: 34346002 cumulative IPC: 1.45577 (Simulation time: 0 hr 26 min 49 sec) 

ChampSim completed all CPUs

Region of Interest Statistics

CPU 0 cumulative IPC: 1.45577 instructions: 50000000 cycles: 34346002
L1D TOTAL     ACCESS:   19754575  HIT:   18109630  MISS:    1644945
L1D LOAD      ACCESS:    6925283  HIT:    6196446  MISS:     728837
L1D RFO       ACCESS:    6240480  HIT:    5954122  MISS:     286358
L1D PREFETCH  ACCESS:    6588812  HIT:    5959062  MISS:     629750
L1D WRITEBACK ACCESS:          0  HIT:          0  MISS:          0
L1D PREFETCH  REQUESTED:    6972948  ISSUED:    6830782  USEFUL:     152086  USELESS:     477674
L1D AVERAGE MISS LATENCY: 24.5426 cycles
L1I TOTAL     ACCESS:   16026015  HIT:   12767525  MISS:    3258490
L1I LOAD      ACCESS:    9511857  HIT:    9464782  MISS:      47075
L1I RFO       ACCESS:          0  HIT:          0  MISS:          0
L1I PREFETCH  ACCESS:    6514158  HIT:    3302743  MISS:    3211415
L1I WRITEBACK ACCESS:          0  HIT:          0  MISS:          0
L1I PREFETCH  REQUESTED:    6956459  ISSUED:    6849682  USEFUL:    2750533  USELESS:     460882
L1I AVERAGE MISS LATENCY: 19.9266 cycles
L2C TOTAL     ACCESS:    6829388  HIT:    5893359  MISS:     936029
L2C LOAD      ACCESS:     721977  HIT:     566308  MISS:     155669
L2C RFO       ACCESS:     284538  HIT:     182368  MISS:     102170
L2C PREFETCH  ACCESS:    5261688  HIT:    4588391  MISS:     673297
L2C WRITEBACK ACCESS:     561185  HIT:     556292  MISS:       4893
L2C PREFETCH  REQUESTED:    4904652  ISSUED:    4896728  USEFUL:      12967  USELESS:     660126
L2C AVERAGE MISS LATENCY: 37.483 cycles
LLC TOTAL     ACCESS:    2599846  HIT:    2563195  MISS:      36651
LLC LOAD      ACCESS:     155402  HIT:     151858  MISS:       3544
LLC RFO       ACCESS:     102163  HIT:      87659  MISS:      14504
LLC PREFETCH  ACCESS:    2167937  HIT:    2149531  MISS:      18406
LLC WRITEBACK ACCESS:     174344  HIT:     174147  MISS:        197
LLC PREFETCH  REQUESTED:          0  ISSUED:          0  USEFUL:       1124  USELESS:      16517
LLC AVERAGE MISS LATENCY: 190.639 cycles
Major fault: 0 Minor fault: 2173
CPU 0 L1D next line prefetcher final stats

DRAM Statistics
 CHANNEL 0
 RQ ROW_BUFFER_HIT:      12497  ROW_BUFFER_MISS:      23952
 DBUS_CONGESTED:      24232
 WQ ROW_BUFFER_HIT:       1633  ROW_BUFFER_MISS:      14954  FULL:          0

 AVG_CONGESTED_CYCLE: 6

CPU 0 Branch Prediction Accuracy: 99.822% MPKI: 0.32584 Average ROB Occupancy at Mispredict: 201.86

Branch types
NOT_BRANCH: 40848585 81.6972%
BRANCH_DIRECT_JUMP: 522045 1.04409%
BRANCH_INDIRECT: 204034 0.408068%
BRANCH_CONDITIONAL: 6212965 12.4259%
BRANCH_DIRECT_CALL: 932393 1.86479%
BRANCH_INDIRECT_CALL: 173764 0.347528%
BRANCH_RETURN: 1106152 2.2123%
BRANCH_OTHER: 0 0%

