Initialize SIGNATURE TABLE
ST_SET: 1
ST_WAY: 256
ST_TAG_BIT: 16
ST_TAG_MASK: ffff

Initialize PATTERN TABLE
PT_SET: 512
PT_WAY: 4
SIG_DELTA_BIT: 7
C_SIG_BIT: 4
C_DELTA_BIT: 4

Initialize PREFETCH FILTER
FILTER_SET: 1024

*** ChampSim Multicore Out-of-Order Simulator ***

Warmup Instructions: 50000000
Simulation Instructions: 50000000
Number of CPUs: 1
LLC sets: 2048
LLC ways: 16
Off-chip DRAM Size: 4096 MB Channels: 1 Width: 64-bit Data Rate: 3200 MT/s

CPU 0 runs /home/ChampSim-master//dpc3_traces/server_014.champsimtrace.xz
CPU 0 EPI prefetcher
CPU 0 L1D next line prefetcher
Heartbeat CPU 0 instructions: 10000003 cycles: 3519566 heartbeat IPC: 2.84126 cumulative IPC: 2.84126 (Simulation time: 0 hr 2 min 55 sec) 
Heartbeat CPU 0 instructions: 20000000 cycles: 7106447 heartbeat IPC: 2.78794 cumulative IPC: 2.81435 (Simulation time: 0 hr 5 min 57 sec) 
Heartbeat CPU 0 instructions: 30000001 cycles: 10647954 heartbeat IPC: 2.82366 cumulative IPC: 2.81744 (Simulation time: 0 hr 9 min 3 sec) 
Heartbeat CPU 0 instructions: 40000003 cycles: 14196176 heartbeat IPC: 2.81831 cumulative IPC: 2.81766 (Simulation time: 0 hr 12 min 6 sec) 
Heartbeat CPU 0 instructions: 50000000 cycles: 17744850 heartbeat IPC: 2.81795 cumulative IPC: 2.81772 (Simulation time: 0 hr 15 min 5 sec) 

Warmup complete CPU 0 instructions: 50000001 cycles: 17744851 (Simulation time: 0 hr 15 min 5 sec) 

Heartbeat CPU 0 instructions: 60000000 cycles: 24406872 heartbeat IPC: 1.50105 cumulative IPC: 1.50105 (Simulation time: 0 hr 17 min 42 sec) 
Heartbeat CPU 0 instructions: 70000003 cycles: 31060539 heartbeat IPC: 1.50293 cumulative IPC: 1.50199 (Simulation time: 0 hr 20 min 15 sec) 
*** Reached end of trace for Core: 0 Repeating trace: /home/ChampSim-master//dpc3_traces/server_014.champsimtrace.xz
Heartbeat CPU 0 instructions: 80000001 cycles: 37887902 heartbeat IPC: 1.46469 cumulative IPC: 1.48935 (Simulation time: 0 hr 22 min 48 sec) 
Heartbeat CPU 0 instructions: 90000003 cycles: 45820638 heartbeat IPC: 1.2606 cumulative IPC: 1.42472 (Simulation time: 0 hr 24 min 57 sec) 
Heartbeat CPU 0 instructions: 100000001 cycles: 52706715 heartbeat IPC: 1.45221 cumulative IPC: 1.43013 (Simulation time: 0 hr 26 min 29 sec) 
Finished CPU 0 instructions: 50000000 cycles: 34961864 cumulative IPC: 1.43013 (Simulation time: 0 hr 26 min 29 sec) 

ChampSim completed all CPUs

Region of Interest Statistics

CPU 0 cumulative IPC: 1.43013 instructions: 50000000 cycles: 34961864
L1D TOTAL     ACCESS:   22122940  HIT:   22052077  MISS:      70863
L1D LOAD      ACCESS:    6915084  HIT:    6888163  MISS:      26921
L1D RFO       ACCESS:    8422602  HIT:    8390536  MISS:      32066
L1D PREFETCH  ACCESS:    6785254  HIT:    6773378  MISS:      11876
L1D WRITEBACK ACCESS:          0  HIT:          0  MISS:          0
L1D PREFETCH  REQUESTED:    6919524  ISSUED:    6813948  USEFUL:       3320  USELESS:       8556
L1D AVERAGE MISS LATENCY: 228.905 cycles
L1I TOTAL     ACCESS:   25011072  HIT:   23427137  MISS:    1583935
L1I LOAD      ACCESS:    9464513  HIT:    8955784  MISS:     508729
L1I RFO       ACCESS:          0  HIT:          0  MISS:          0
L1I PREFETCH  ACCESS:   15546559  HIT:   14471353  MISS:    1075206
L1I WRITEBACK ACCESS:          0  HIT:          0  MISS:          0
L1I PREFETCH  REQUESTED:   16720907  ISSUED:   16720907  USEFUL:    1018217  USELESS:      56979
L1I AVERAGE MISS LATENCY: 14.6426 cycles
L2C TOTAL     ACCESS:    2416618  HIT:    2345361  MISS:      71257
L2C LOAD      ACCESS:     489864  HIT:     469356  MISS:      20508
L2C RFO       ACCESS:      32019  HIT:       1093  MISS:      30926
L2C PREFETCH  ACCESS:    1856369  HIT:    1836564  MISS:      19805
L2C WRITEBACK ACCESS:      38366  HIT:      38348  MISS:         18
L2C PREFETCH  REQUESTED:    1436057  ISSUED:    1436053  USEFUL:       1281  USELESS:      18501
L2C AVERAGE MISS LATENCY: 256.949 cycles
LLC TOTAL     ACCESS:     404881  HIT:     339193  MISS:      65688
LLC LOAD      ACCESS:      19344  HIT:       6111  MISS:      13233
LLC RFO       ACCESS:      30926  HIT:       4365  MISS:      26561
LLC PREFETCH  ACCESS:     319792  HIT:     294013  MISS:      25779
LLC WRITEBACK ACCESS:      34819  HIT:      34704  MISS:        115
LLC PREFETCH  REQUESTED:          0  ISSUED:          0  USEFUL:       4573  USELESS:      22463
LLC AVERAGE MISS LATENCY: 308.708 cycles
Major fault: 0 Minor fault: 1911
CPU 0 L1I EPI prefetcher final stats
CPU 0 L1D next line prefetcher final stats

DRAM Statistics
 CHANNEL 0
 RQ ROW_BUFFER_HIT:      28706  ROW_BUFFER_MISS:      36862
 DBUS_CONGESTED:      66527
 WQ ROW_BUFFER_HIT:       8621  ROW_BUFFER_MISS:      23596  FULL:          0

 AVG_CONGESTED_CYCLE: 6

CPU 0 Branch Prediction Accuracy: 99.7719% MPKI: 0.38824 Average ROB Occupancy at Mispredict: 114.562

Branch types
NOT_BRANCH: 41488821 82.9776%
BRANCH_DIRECT_JUMP: 449415 0.89883%
BRANCH_INDIRECT: 2330 0.00466%
BRANCH_CONDITIONAL: 5470004 10.94%
BRANCH_DIRECT_CALL: 1172177 2.34435%
BRANCH_INDIRECT_CALL: 122383 0.244766%
BRANCH_RETURN: 1294544 2.58909%
BRANCH_OTHER: 0 0%

