Initialize SIGNATURE TABLE
ST_SET: 1
ST_WAY: 256
ST_TAG_BIT: 16
ST_TAG_MASK: ffff

Initialize PATTERN TABLE
PT_SET: 512
PT_WAY: 4
SIG_DELTA_BIT: 7
C_SIG_BIT: 4
C_DELTA_BIT: 4

Initialize PREFETCH FILTER
FILTER_SET: 1024

*** ChampSim Multicore Out-of-Order Simulator ***

Warmup Instructions: 50000000
Simulation Instructions: 50000000
Number of CPUs: 1
LLC sets: 2048
LLC ways: 16
Off-chip DRAM Size: 4096 MB Channels: 1 Width: 64-bit Data Rate: 3200 MT/s

CPU 0 runs /home/ChampSim-master//dpc3_traces/server_009.champsimtrace.xz
L1I D-JOLT instruction prefetcher has been constructed!
CPU 0 L1D next line prefetcher
Heartbeat CPU 0 instructions: 10000003 cycles: 3196290 heartbeat IPC: 3.12863 cumulative IPC: 3.12863 (Simulation time: 0 hr 2 min 32 sec) 
Heartbeat CPU 0 instructions: 20000001 cycles: 6386013 heartbeat IPC: 3.13507 cumulative IPC: 3.13184 (Simulation time: 0 hr 5 min 11 sec) 
Heartbeat CPU 0 instructions: 30000002 cycles: 9591164 heartbeat IPC: 3.11998 cumulative IPC: 3.12788 (Simulation time: 0 hr 8 min 21 sec) 
Heartbeat CPU 0 instructions: 40000003 cycles: 12792577 heartbeat IPC: 3.12362 cumulative IPC: 3.12681 (Simulation time: 0 hr 11 min 13 sec) 
Heartbeat CPU 0 instructions: 50000000 cycles: 16050425 heartbeat IPC: 3.06951 cumulative IPC: 3.11518 (Simulation time: 0 hr 14 min 29 sec) 

Warmup complete CPU 0 instructions: 50000004 cycles: 16050426 (Simulation time: 0 hr 14 min 30 sec) 

Heartbeat CPU 0 instructions: 60000002 cycles: 31722483 heartbeat IPC: 0.638078 cumulative IPC: 0.638078 (Simulation time: 0 hr 17 min 46 sec) 
Heartbeat CPU 0 instructions: 70000003 cycles: 52764946 heartbeat IPC: 0.47523 cumulative IPC: 0.544744 (Simulation time: 0 hr 21 min 28 sec) 
Heartbeat CPU 0 instructions: 80000000 cycles: 59920780 heartbeat IPC: 1.39746 cumulative IPC: 0.683833 (Simulation time: 0 hr 23 min 52 sec) 
Heartbeat CPU 0 instructions: 90000001 cycles: 67205858 heartbeat IPC: 1.37267 cumulative IPC: 0.781931 (Simulation time: 0 hr 26 min 3 sec) 
Heartbeat CPU 0 instructions: 100000003 cycles: 74363808 heartbeat IPC: 1.39705 cumulative IPC: 0.857436 (Simulation time: 0 hr 27 min 24 sec) 
Finished CPU 0 instructions: 50000003 cycles: 58313383 cumulative IPC: 0.857436 (Simulation time: 0 hr 27 min 24 sec) 

ChampSim completed all CPUs

Region of Interest Statistics

CPU 0 cumulative IPC: 0.857436 instructions: 50000003 cycles: 58313383
L1D TOTAL     ACCESS:   21619712  HIT:   17040223  MISS:    4579489
L1D LOAD      ACCESS:    8626389  HIT:    6346192  MISS:    2280197
L1D RFO       ACCESS:    4580177  HIT:    4475740  MISS:     104437
L1D PREFETCH  ACCESS:    8413146  HIT:    6218291  MISS:    2194855
L1D WRITEBACK ACCESS:          0  HIT:          0  MISS:          0
L1D PREFETCH  REQUESTED:    8658635  ISSUED:    8561695  USEFUL:     106404  USELESS:    2088449
L1D AVERAGE MISS LATENCY: 20.3745 cycles
L1I TOTAL     ACCESS:   17374998  HIT:   15810812  MISS:    1564186
L1I LOAD      ACCESS:   10790276  HIT:   10722277  MISS:      67999
L1I RFO       ACCESS:          0  HIT:          0  MISS:          0
L1I PREFETCH  ACCESS:    6584722  HIT:    5088535  MISS:    1496187
L1I WRITEBACK ACCESS:          0  HIT:          0  MISS:          0
L1I PREFETCH  REQUESTED:    7270710  ISSUED:    6843821  USEFUL:    1088471  USELESS:     407694
L1I AVERAGE MISS LATENCY: 30.8848 cycles
L2C TOTAL     ACCESS:    7928440  HIT:    6874933  MISS:    1053507
L2C LOAD      ACCESS:    2297974  HIT:    2076055  MISS:     221919
L2C RFO       ACCESS:     103482  HIT:      63475  MISS:      40007
L2C PREFETCH  ACCESS:    5270127  HIT:    4479833  MISS:     790294
L2C WRITEBACK ACCESS:     256857  HIT:     255570  MISS:       1287
L2C PREFETCH  REQUESTED:    6562480  ISSUED:    6559651  USEFUL:      21855  USELESS:     767292
L2C AVERAGE MISS LATENCY: 46.8341 cycles
LLC TOTAL     ACCESS:    2340404  HIT:    2206412  MISS:     133992
LLC LOAD      ACCESS:     221695  HIT:     201586  MISS:      20109
LLC RFO       ACCESS:      40001  HIT:      31333  MISS:       8668
LLC PREFETCH  ACCESS:    1941516  HIT:    1836474  MISS:     105042
LLC WRITEBACK ACCESS:     137192  HIT:     137019  MISS:        173
LLC PREFETCH  REQUESTED:          0  ISSUED:          0  USEFUL:      11484  USELESS:      92318
LLC AVERAGE MISS LATENCY: 173.551 cycles
Major fault: 0 Minor fault: 6365
CPU 0 L1D next line prefetcher final stats

DRAM Statistics
 CHANNEL 0
 RQ ROW_BUFFER_HIT:      24887  ROW_BUFFER_MISS:     108917
 DBUS_CONGESTED:      57644
 WQ ROW_BUFFER_HIT:       9024  ROW_BUFFER_MISS:      37336  FULL:          0

 AVG_CONGESTED_CYCLE: 5

CPU 0 Branch Prediction Accuracy: 99.4713% MPKI: 1.11484 Average ROB Occupancy at Mispredict: 119.599

Branch types
NOT_BRANCH: 39456615 78.9132%
BRANCH_DIRECT_JUMP: 445350 0.8907%
BRANCH_INDIRECT: 131149 0.262298%
BRANCH_CONDITIONAL: 8130196 16.2604%
BRANCH_DIRECT_CALL: 732485 1.46497%
BRANCH_INDIRECT_CALL: 172369 0.344738%
BRANCH_RETURN: 931558 1.86312%
BRANCH_OTHER: 0 0%

