Initialize SIGNATURE TABLE
ST_SET: 1
ST_WAY: 256
ST_TAG_BIT: 16
ST_TAG_MASK: ffff

Initialize PATTERN TABLE
PT_SET: 512
PT_WAY: 4
SIG_DELTA_BIT: 7
C_SIG_BIT: 4
C_DELTA_BIT: 4

Initialize PREFETCH FILTER
FILTER_SET: 1024

*** ChampSim Multicore Out-of-Order Simulator ***

Warmup Instructions: 50000000
Simulation Instructions: 50000000
Number of CPUs: 1
LLC sets: 2048
LLC ways: 16
Off-chip DRAM Size: 4096 MB Channels: 1 Width: 64-bit Data Rate: 3200 MT/s

CPU 0 runs /home/ChampSim-master//dpc3_traces/server_024.champsimtrace.xz
L1I D-JOLT instruction prefetcher has been constructed!
CPU 0 L1D next line prefetcher
Heartbeat CPU 0 instructions: 10000000 cycles: 3497857 heartbeat IPC: 2.85889 cumulative IPC: 2.85889 (Simulation time: 0 hr 3 min 1 sec) 
Heartbeat CPU 0 instructions: 20000002 cycles: 6988417 heartbeat IPC: 2.86487 cumulative IPC: 2.86188 (Simulation time: 0 hr 5 min 49 sec) 
Heartbeat CPU 0 instructions: 30000000 cycles: 10489081 heartbeat IPC: 2.8566 cumulative IPC: 2.86012 (Simulation time: 0 hr 8 min 36 sec) 
Heartbeat CPU 0 instructions: 40000000 cycles: 13987475 heartbeat IPC: 2.85845 cumulative IPC: 2.8597 (Simulation time: 0 hr 11 min 32 sec) 
Heartbeat CPU 0 instructions: 50000001 cycles: 17476119 heartbeat IPC: 2.86644 cumulative IPC: 2.86105 (Simulation time: 0 hr 14 min 23 sec) 

Warmup complete CPU 0 instructions: 50000001 cycles: 17476119 (Simulation time: 0 hr 14 min 23 sec) 

Heartbeat CPU 0 instructions: 60000002 cycles: 24214498 heartbeat IPC: 1.48404 cumulative IPC: 1.48404 (Simulation time: 0 hr 17 min 10 sec) 
Heartbeat CPU 0 instructions: 70000000 cycles: 30984941 heartbeat IPC: 1.47701 cumulative IPC: 1.48051 (Simulation time: 0 hr 19 min 57 sec) 
*** Reached end of trace for Core: 0 Repeating trace: /home/ChampSim-master//dpc3_traces/server_024.champsimtrace.xz
Heartbeat CPU 0 instructions: 80000003 cycles: 37730292 heartbeat IPC: 1.4825 cumulative IPC: 1.48118 (Simulation time: 0 hr 22 min 27 sec) 
Heartbeat CPU 0 instructions: 90000003 cycles: 44544331 heartbeat IPC: 1.46756 cumulative IPC: 1.47775 (Simulation time: 0 hr 24 min 40 sec) 
Heartbeat CPU 0 instructions: 100000002 cycles: 51307963 heartbeat IPC: 1.4785 cumulative IPC: 1.4779 (Simulation time: 0 hr 26 min 8 sec) 
Finished CPU 0 instructions: 50000001 cycles: 33831844 cumulative IPC: 1.4779 (Simulation time: 0 hr 26 min 8 sec) 

ChampSim completed all CPUs

Region of Interest Statistics

CPU 0 cumulative IPC: 1.4779 instructions: 50000001 cycles: 33831844
L1D TOTAL     ACCESS:   19647856  HIT:   18130614  MISS:    1517242
L1D LOAD      ACCESS:    6915179  HIT:    6234611  MISS:     680568
L1D RFO       ACCESS:    6147753  HIT:    5874132  MISS:     273621
L1D PREFETCH  ACCESS:    6584924  HIT:    6021871  MISS:     563053
L1D WRITEBACK ACCESS:          0  HIT:          0  MISS:          0
L1D PREFETCH  REQUESTED:    6970461  ISSUED:    6847684  USEFUL:     135745  USELESS:     427313
L1D AVERAGE MISS LATENCY: 25.911 cycles
L1I TOTAL     ACCESS:   15117814  HIT:   12176395  MISS:    2941419
L1I LOAD      ACCESS:    9345330  HIT:    9298859  MISS:      46471
L1I RFO       ACCESS:          0  HIT:          0  MISS:          0
L1I PREFETCH  ACCESS:    5772484  HIT:    2877536  MISS:    2894948
L1I WRITEBACK ACCESS:          0  HIT:          0  MISS:          0
L1I PREFETCH  REQUESTED:    6132240  ISSUED:    6062492  USEFUL:    2492065  USELESS:     402874
L1I AVERAGE MISS LATENCY: 19.3206 cycles
L2C TOTAL     ACCESS:    6237896  HIT:    5449229  MISS:     788667
L2C LOAD      ACCESS:     661915  HIT:     521505  MISS:     140410
L2C RFO       ACCESS:     272086  HIT:     176161  MISS:      95925
L2C PREFETCH  ACCESS:    4783765  HIT:    4238576  MISS:     545189
L2C WRITEBACK ACCESS:     520130  HIT:     512987  MISS:       7143
L2C PREFETCH  REQUESTED:    4498833  ISSUED:    4491292  USEFUL:      10786  USELESS:     534133
L2C AVERAGE MISS LATENCY: 41.9949 cycles
LLC TOTAL     ACCESS:    2146696  HIT:    2092937  MISS:      53759
LLC LOAD      ACCESS:     140037  HIT:     134475  MISS:       5562
LLC RFO       ACCESS:      95910  HIT:      73619  MISS:      22291
LLC PREFETCH  ACCESS:    1753872  HIT:    1728257  MISS:      25615
LLC WRITEBACK ACCESS:     156877  HIT:     156586  MISS:        291
LLC PREFETCH  REQUESTED:          0  ISSUED:          0  USEFUL:       1974  USELESS:      23936
LLC AVERAGE MISS LATENCY: 196.525 cycles
Major fault: 0 Minor fault: 2372
CPU 0 L1D next line prefetcher final stats

DRAM Statistics
 CHANNEL 0
 RQ ROW_BUFFER_HIT:      18079  ROW_BUFFER_MISS:      35383
 DBUS_CONGESTED:      37705
 WQ ROW_BUFFER_HIT:       2633  ROW_BUFFER_MISS:      22851  FULL:          0

 AVG_CONGESTED_CYCLE: 6

CPU 0 Branch Prediction Accuracy: 99.7477% MPKI: 0.46156 Average ROB Occupancy at Mispredict: 174.737

Branch types
NOT_BRANCH: 40853678 81.7074%
BRANCH_DIRECT_JUMP: 566819 1.13364%
BRANCH_INDIRECT: 197171 0.394342%
BRANCH_CONDITIONAL: 6308423 12.6168%
BRANCH_DIRECT_CALL: 876400 1.7528%
BRANCH_INDIRECT_CALL: 160491 0.320982%
BRANCH_RETURN: 1036885 2.07377%
BRANCH_OTHER: 0 0%

