Initialize SIGNATURE TABLE
ST_SET: 1
ST_WAY: 256
ST_TAG_BIT: 16
ST_TAG_MASK: ffff

Initialize PATTERN TABLE
PT_SET: 512
PT_WAY: 4
SIG_DELTA_BIT: 7
C_SIG_BIT: 4
C_DELTA_BIT: 4

Initialize PREFETCH FILTER
FILTER_SET: 1024

*** ChampSim Multicore Out-of-Order Simulator ***

Warmup Instructions: 50000000
Simulation Instructions: 50000000
Number of CPUs: 1
LLC sets: 2048
LLC ways: 16
Off-chip DRAM Size: 4096 MB Channels: 1 Width: 64-bit Data Rate: 3200 MT/s

CPU 0 runs /home/ChampSim-master//dpc3_traces/server_015.champsimtrace.xz
CPU 0 EPI prefetcher
CPU 0 L1D next line prefetcher
Heartbeat CPU 0 instructions: 10000002 cycles: 3519398 heartbeat IPC: 2.8414 cumulative IPC: 2.8414 (Simulation time: 0 hr 3 min 55 sec) 
Heartbeat CPU 0 instructions: 20000001 cycles: 7107196 heartbeat IPC: 2.78722 cumulative IPC: 2.81405 (Simulation time: 0 hr 7 min 25 sec) 
Heartbeat CPU 0 instructions: 30000001 cycles: 10646158 heartbeat IPC: 2.82569 cumulative IPC: 2.81792 (Simulation time: 0 hr 11 min 16 sec) 
Heartbeat CPU 0 instructions: 40000002 cycles: 14194199 heartbeat IPC: 2.81846 cumulative IPC: 2.81805 (Simulation time: 0 hr 15 min 0 sec) 
Heartbeat CPU 0 instructions: 50000002 cycles: 17742459 heartbeat IPC: 2.81828 cumulative IPC: 2.8181 (Simulation time: 0 hr 18 min 29 sec) 

Warmup complete CPU 0 instructions: 50000002 cycles: 17742459 (Simulation time: 0 hr 18 min 29 sec) 

Heartbeat CPU 0 instructions: 60000002 cycles: 24038341 heartbeat IPC: 1.58834 cumulative IPC: 1.58834 (Simulation time: 0 hr 21 min 50 sec) 
Heartbeat CPU 0 instructions: 70000003 cycles: 30345707 heartbeat IPC: 1.58545 cumulative IPC: 1.58689 (Simulation time: 0 hr 25 min 12 sec) 
Heartbeat CPU 0 instructions: 80000000 cycles: 36652724 heartbeat IPC: 1.58554 cumulative IPC: 1.58644 (Simulation time: 0 hr 28 min 0 sec) 
Heartbeat CPU 0 instructions: 90000000 cycles: 42964321 heartbeat IPC: 1.58439 cumulative IPC: 1.58593 (Simulation time: 0 hr 29 min 40 sec) 
Heartbeat CPU 0 instructions: 100000002 cycles: 49273148 heartbeat IPC: 1.58508 cumulative IPC: 1.58576 (Simulation time: 0 hr 30 min 15 sec) 
Finished CPU 0 instructions: 50000000 cycles: 31530689 cumulative IPC: 1.58576 (Simulation time: 0 hr 30 min 15 sec) 

ChampSim completed all CPUs

Region of Interest Statistics

CPU 0 cumulative IPC: 1.58576 instructions: 50000000 cycles: 31530689
L1D TOTAL     ACCESS:   21817175  HIT:   21800408  MISS:      16767
L1D LOAD      ACCESS:    6685451  HIT:    6684920  MISS:        531
L1D RFO       ACCESS:    8561369  HIT:    8561274  MISS:         95
L1D PREFETCH  ACCESS:    6570355  HIT:    6554214  MISS:      16141
L1D WRITEBACK ACCESS:          0  HIT:          0  MISS:          0
L1D PREFETCH  REQUESTED:    6685509  ISSUED:    6574765  USEFUL:         83  USELESS:      16056
L1D AVERAGE MISS LATENCY: 16.3927 cycles
L1I TOTAL     ACCESS:   48498539  HIT:   46115517  MISS:    2383022
L1I LOAD      ACCESS:    9761373  HIT:    9733775  MISS:      27598
L1I RFO       ACCESS:          0  HIT:          0  MISS:          0
L1I PREFETCH  ACCESS:   38737166  HIT:   36381742  MISS:    2355424
L1I WRITEBACK ACCESS:          0  HIT:          0  MISS:          0
L1I PREFETCH  REQUESTED:   47606575  ISSUED:   47606575  USEFUL:    1884262  USELESS:     471155
L1I AVERAGE MISS LATENCY: 14.3903 cycles
L2C TOTAL     ACCESS:    3471864  HIT:    3471528  MISS:        336
L2C LOAD      ACCESS:      23956  HIT:      23884  MISS:         72
L2C RFO       ACCESS:         94  HIT:         92  MISS:          2
L2C PREFETCH  ACCESS:    3447466  HIT:    3447205  MISS:        261
L2C WRITEBACK ACCESS:        348  HIT:        347  MISS:          1
L2C PREFETCH  REQUESTED:    2004583  ISSUED:    2004527  USEFUL:         71  USELESS:        128
L2C AVERAGE MISS LATENCY: 98.247 cycles
LLC TOTAL     ACCESS:     206894  HIT:     206151  MISS:        743
LLC LOAD      ACCESS:         72  HIT:         58  MISS:         14
LLC RFO       ACCESS:          2  HIT:          1  MISS:          1
LLC PREFETCH  ACCESS:     206719  HIT:     205995  MISS:        724
LLC WRITEBACK ACCESS:        101  HIT:         97  MISS:          4
LLC PREFETCH  REQUESTED:          0  ISSUED:          0  USEFUL:         10  USELESS:        142
LLC AVERAGE MISS LATENCY: 392.934 cycles
Major fault: 0 Minor fault: 1890
CPU 0 L1I EPI prefetcher final stats
CPU 0 L1D next line prefetcher final stats

DRAM Statistics
 CHANNEL 0
 RQ ROW_BUFFER_HIT:        115  ROW_BUFFER_MISS:        624
 DBUS_CONGESTED:        426
 WQ ROW_BUFFER_HIT:         57  ROW_BUFFER_MISS:        472  FULL:          0

 AVG_CONGESTED_CYCLE: 6

CPU 0 Branch Prediction Accuracy: 99.9085% MPKI: 0.15428 Average ROB Occupancy at Mispredict: 298.096

Branch types
NOT_BRANCH: 41573150 83.1463%
BRANCH_DIRECT_JUMP: 436254 0.872508%
BRANCH_INDIRECT: 0 0%
BRANCH_CONDITIONAL: 5395897 10.7918%
BRANCH_DIRECT_CALL: 1173391 2.34678%
BRANCH_INDIRECT_CALL: 123912 0.247824%
BRANCH_RETURN: 1297311 2.59462%
BRANCH_OTHER: 0 0%

