Initialize SIGNATURE TABLE
ST_SET: 1
ST_WAY: 256
ST_TAG_BIT: 16
ST_TAG_MASK: ffff

Initialize PATTERN TABLE
PT_SET: 512
PT_WAY: 4
SIG_DELTA_BIT: 7
C_SIG_BIT: 4
C_DELTA_BIT: 4

Initialize PREFETCH FILTER
FILTER_SET: 1024

*** ChampSim Multicore Out-of-Order Simulator ***

Warmup Instructions: 50000000
Simulation Instructions: 50000000
Number of CPUs: 1
LLC sets: 2048
LLC ways: 16
Off-chip DRAM Size: 4096 MB Channels: 1 Width: 64-bit Data Rate: 3200 MT/s

CPU 0 runs /home/ChampSim-master//dpc3_traces/server_022.champsimtrace.xz
CPU 0 EPI prefetcher
CPU 0 L1D next line prefetcher
Heartbeat CPU 0 instructions: 10000002 cycles: 3623117 heartbeat IPC: 2.76006 cumulative IPC: 2.76006 (Simulation time: 0 hr 3 min 20 sec) 
Heartbeat CPU 0 instructions: 20000001 cycles: 7252971 heartbeat IPC: 2.75493 cumulative IPC: 2.75749 (Simulation time: 0 hr 7 min 7 sec) 
Heartbeat CPU 0 instructions: 30000003 cycles: 10875884 heartbeat IPC: 2.76021 cumulative IPC: 2.7584 (Simulation time: 0 hr 10 min 35 sec) 
Heartbeat CPU 0 instructions: 40000003 cycles: 14505961 heartbeat IPC: 2.75476 cumulative IPC: 2.75749 (Simulation time: 0 hr 13 min 44 sec) 
Heartbeat CPU 0 instructions: 50000002 cycles: 18126420 heartbeat IPC: 2.76208 cumulative IPC: 2.7584 (Simulation time: 0 hr 16 min 48 sec) 

Warmup complete CPU 0 instructions: 50000002 cycles: 18126420 (Simulation time: 0 hr 16 min 48 sec) 

Heartbeat CPU 0 instructions: 60000000 cycles: 35041094 heartbeat IPC: 0.591202 cumulative IPC: 0.591202 (Simulation time: 0 hr 20 min 26 sec) 
Heartbeat CPU 0 instructions: 70000001 cycles: 52000362 heartbeat IPC: 0.589648 cumulative IPC: 0.590424 (Simulation time: 0 hr 24 min 9 sec) 
Heartbeat CPU 0 instructions: 80000001 cycles: 68832404 heartbeat IPC: 0.594105 cumulative IPC: 0.591646 (Simulation time: 0 hr 27 min 11 sec) 
Heartbeat CPU 0 instructions: 90000003 cycles: 85947688 heartbeat IPC: 0.584273 cumulative IPC: 0.589786 (Simulation time: 0 hr 28 min 49 sec) 
Heartbeat CPU 0 instructions: 100000003 cycles: 102901426 heartbeat IPC: 0.58984 cumulative IPC: 0.589796 (Simulation time: 0 hr 29 min 23 sec) 
Finished CPU 0 instructions: 50000001 cycles: 84775006 cumulative IPC: 0.589796 (Simulation time: 0 hr 29 min 23 sec) 

ChampSim completed all CPUs

Region of Interest Statistics

CPU 0 cumulative IPC: 0.589796 instructions: 50000001 cycles: 84775006
L1D TOTAL     ACCESS:   18754923  HIT:   16544153  MISS:    2210770
L1D LOAD      ACCESS:    7079919  HIT:    6369554  MISS:     710365
L1D RFO       ACCESS:    5898885  HIT:    4919300  MISS:     979585
L1D PREFETCH  ACCESS:    5776119  HIT:    5255299  MISS:     520820
L1D WRITEBACK ACCESS:          0  HIT:          0  MISS:          0
L1D PREFETCH  REQUESTED:    7122074  ISSUED:    6914668  USEFUL:     199620  USELESS:     321205
L1D AVERAGE MISS LATENCY: 179.36 cycles
L1I TOTAL     ACCESS:   30173335  HIT:   27658361  MISS:    2514974
L1I LOAD      ACCESS:   10065357  HIT:    9911526  MISS:     153831
L1I RFO       ACCESS:          0  HIT:          0  MISS:          0
L1I PREFETCH  ACCESS:   20107978  HIT:   17746835  MISS:    2361143
L1I WRITEBACK ACCESS:          0  HIT:          0  MISS:          0
L1I PREFETCH  REQUESTED:   22641954  ISSUED:   22641954  USEFUL:    2240195  USELESS:     120950
L1I AVERAGE MISS LATENCY: 18.1203 cycles
L2C TOTAL     ACCESS:    7159380  HIT:    5298811  MISS:    1860569
L2C LOAD      ACCESS:     610756  HIT:     360439  MISS:     250317
L2C RFO       ACCESS:     979015  HIT:      20278  MISS:     958737
L2C PREFETCH  ACCESS:    4384454  HIT:    3735084  MISS:     649370
L2C WRITEBACK ACCESS:    1185155  HIT:    1183010  MISS:       2145
L2C PREFETCH  REQUESTED:    3849032  ISSUED:    3843543  USEFUL:      22117  USELESS:     627264
L2C AVERAGE MISS LATENCY: 219.115 cycles
LLC TOTAL     ACCESS:    3920453  HIT:    2546646  MISS:    1373807
LLC LOAD      ACCESS:     250156  HIT:     177206  MISS:      72950
LLC RFO       ACCESS:     958732  HIT:     143432  MISS:     815300
LLC PREFETCH  ACCESS:    1594332  HIT:    1110868  MISS:     483464
LLC WRITEBACK ACCESS:    1117233  HIT:    1115140  MISS:       2093
LLC PREFETCH  REQUESTED:          0  ISSUED:          0  USEFUL:      26990  USELESS:     457124
LLC AVERAGE MISS LATENCY: 291.557 cycles
Major fault: 0 Minor fault: 23505
CPU 0 L1I EPI prefetcher final stats
CPU 0 L1D next line prefetcher final stats

DRAM Statistics
 CHANNEL 0
 RQ ROW_BUFFER_HIT:     394509  ROW_BUFFER_MISS:     976927
 DBUS_CONGESTED:    1419707
 WQ ROW_BUFFER_HIT:     274013  ROW_BUFFER_MISS:     625583  FULL:          0

 AVG_CONGESTED_CYCLE: 6

CPU 0 Branch Prediction Accuracy: 99.8317% MPKI: 0.27564 Average ROB Occupancy at Mispredict: 222.713

Branch types
NOT_BRANCH: 41811174 83.6223%
BRANCH_DIRECT_JUMP: 445742 0.891484%
BRANCH_INDIRECT: 48876 0.097752%
BRANCH_CONDITIONAL: 5859410 11.7188%
BRANCH_DIRECT_CALL: 758268 1.51654%
BRANCH_INDIRECT_CALL: 159103 0.318206%
BRANCH_RETURN: 917373 1.83475%
BRANCH_OTHER: 0 0%

