Initialize SIGNATURE TABLE
ST_SET: 1
ST_WAY: 256
ST_TAG_BIT: 16
ST_TAG_MASK: ffff

Initialize PATTERN TABLE
PT_SET: 512
PT_WAY: 4
SIG_DELTA_BIT: 7
C_SIG_BIT: 4
C_DELTA_BIT: 4

Initialize PREFETCH FILTER
FILTER_SET: 1024

*** ChampSim Multicore Out-of-Order Simulator ***

Warmup Instructions: 50000000
Simulation Instructions: 50000000
Number of CPUs: 1
LLC sets: 2048
LLC ways: 16
Off-chip DRAM Size: 4096 MB Channels: 1 Width: 64-bit Data Rate: 3200 MT/s

CPU 0 runs /home/ChampSim-master//dpc3_traces/server_031.champsimtrace.xz
CPU 0 EPI prefetcher
CPU 0 L1D next line prefetcher
Heartbeat CPU 0 instructions: 10000003 cycles: 3519314 heartbeat IPC: 2.84146 cumulative IPC: 2.84146 (Simulation time: 0 hr 3 min 17 sec) 
Heartbeat CPU 0 instructions: 20000002 cycles: 7037820 heartbeat IPC: 2.84212 cumulative IPC: 2.84179 (Simulation time: 0 hr 6 min 27 sec) 
Heartbeat CPU 0 instructions: 30000002 cycles: 10556909 heartbeat IPC: 2.84164 cumulative IPC: 2.84174 (Simulation time: 0 hr 9 min 36 sec) 
Heartbeat CPU 0 instructions: 40000003 cycles: 14072604 heartbeat IPC: 2.84439 cumulative IPC: 2.8424 (Simulation time: 0 hr 12 min 47 sec) 
Heartbeat CPU 0 instructions: 50000001 cycles: 17590925 heartbeat IPC: 2.84226 cumulative IPC: 2.84237 (Simulation time: 0 hr 16 min 17 sec) 

Warmup complete CPU 0 instructions: 50000001 cycles: 17590925 (Simulation time: 0 hr 16 min 17 sec) 

Heartbeat CPU 0 instructions: 60000001 cycles: 25064023 heartbeat IPC: 1.33813 cumulative IPC: 1.33813 (Simulation time: 0 hr 19 min 46 sec) 
Heartbeat CPU 0 instructions: 70000002 cycles: 32574904 heartbeat IPC: 1.3314 cumulative IPC: 1.33476 (Simulation time: 0 hr 23 min 24 sec) 
*** Reached end of trace for Core: 0 Repeating trace: /home/ChampSim-master//dpc3_traces/server_031.champsimtrace.xz
Heartbeat CPU 0 instructions: 80000000 cycles: 39949168 heartbeat IPC: 1.35607 cumulative IPC: 1.34179 (Simulation time: 0 hr 26 min 35 sec) 
Heartbeat CPU 0 instructions: 90000003 cycles: 47349681 heartbeat IPC: 1.35126 cumulative IPC: 1.34414 (Simulation time: 0 hr 28 min 49 sec) 
Heartbeat CPU 0 instructions: 100000000 cycles: 54703684 heartbeat IPC: 1.3598 cumulative IPC: 1.34725 (Simulation time: 0 hr 29 min 52 sec) 
Finished CPU 0 instructions: 50000000 cycles: 37112761 cumulative IPC: 1.34725 (Simulation time: 0 hr 29 min 52 sec) 

ChampSim completed all CPUs

Region of Interest Statistics

CPU 0 cumulative IPC: 1.34725 instructions: 50000000 cycles: 37112761
L1D TOTAL     ACCESS:   19503178  HIT:   17598902  MISS:    1904276
L1D LOAD      ACCESS:    6760731  HIT:    5887080  MISS:     873651
L1D RFO       ACCESS:    6324835  HIT:    6033621  MISS:     291214
L1D PREFETCH  ACCESS:    6417612  HIT:    5678201  MISS:     739411
L1D WRITEBACK ACCESS:          0  HIT:          0  MISS:          0
L1D PREFETCH  REQUESTED:    6820857  ISSUED:    6706859  USEFUL:     173697  USELESS:     565719
L1D AVERAGE MISS LATENCY: 22.5128 cycles
L1I TOTAL     ACCESS:   30592960  HIT:   27047412  MISS:    3545548
L1I LOAD      ACCESS:    9707370  HIT:    9674094  MISS:      33276
L1I RFO       ACCESS:          0  HIT:          0  MISS:          0
L1I PREFETCH  ACCESS:   20885590  HIT:   17373318  MISS:    3512272
L1I WRITEBACK ACCESS:          0  HIT:          0  MISS:          0
L1I PREFETCH  REQUESTED:   26480460  ISSUED:   26480460  USEFUL:    3011941  USELESS:     500337
L1I AVERAGE MISS LATENCY: 18.3394 cycles
L2C TOTAL     ACCESS:    7757320  HIT:    7131685  MISS:     625635
L2C LOAD      ACCESS:     838145  HIT:     720153  MISS:     117992
L2C RFO       ACCESS:     289227  HIT:     246402  MISS:      42825
L2C PREFETCH  ACCESS:    6013022  HIT:    5549095  MISS:     463927
L2C WRITEBACK ACCESS:     616926  HIT:     616035  MISS:        891
L2C PREFETCH  REQUESTED:    6873440  ISSUED:    6852344  USEFUL:       5408  USELESS:     457767
L2C AVERAGE MISS LATENCY: 44.9017 cycles
LLC TOTAL     ACCESS:    2396284  HIT:    2314171  MISS:      82113
LLC LOAD      ACCESS:     117938  HIT:      99256  MISS:      18682
LLC RFO       ACCESS:      42823  HIT:      38591  MISS:       4232
LLC PREFETCH  ACCESS:    2155834  HIT:    2097176  MISS:      58658
LLC WRITEBACK ACCESS:      79689  HIT:      79148  MISS:        541
LLC PREFETCH  REQUESTED:          0  ISSUED:          0  USEFUL:       2628  USELESS:      55899
LLC AVERAGE MISS LATENCY: 159.669 cycles
Major fault: 0 Minor fault: 6046
CPU 0 L1I EPI prefetcher final stats
CPU 0 L1D next line prefetcher final stats

DRAM Statistics
 CHANNEL 0
 RQ ROW_BUFFER_HIT:      22124  ROW_BUFFER_MISS:      59435
 DBUS_CONGESTED:      33938
 WQ ROW_BUFFER_HIT:        725  ROW_BUFFER_MISS:       5258  FULL:          0

 AVG_CONGESTED_CYCLE: 5

CPU 0 Branch Prediction Accuracy: 99.6894% MPKI: 0.58048 Average ROB Occupancy at Mispredict: 145.503

Branch types
NOT_BRANCH: 40655653 81.3113%
BRANCH_DIRECT_JUMP: 546483 1.09297%
BRANCH_INDIRECT: 172433 0.344866%
BRANCH_CONDITIONAL: 6207592 12.4152%
BRANCH_DIRECT_CALL: 1018498 2.037%
BRANCH_INDIRECT_CALL: 190373 0.380746%
BRANCH_RETURN: 1208855 2.41771%
BRANCH_OTHER: 0 0%

