Initialize SIGNATURE TABLE
ST_SET: 1
ST_WAY: 256
ST_TAG_BIT: 16
ST_TAG_MASK: ffff

Initialize PATTERN TABLE
PT_SET: 512
PT_WAY: 4
SIG_DELTA_BIT: 7
C_SIG_BIT: 4
C_DELTA_BIT: 4

Initialize PREFETCH FILTER
FILTER_SET: 1024

*** ChampSim Multicore Out-of-Order Simulator ***

Warmup Instructions: 50000000
Simulation Instructions: 50000000
Number of CPUs: 1
LLC sets: 2048
LLC ways: 16
Off-chip DRAM Size: 4096 MB Channels: 1 Width: 64-bit Data Rate: 3200 MT/s

CPU 0 runs /home/ChampSim-master//dpc3_traces/server_036.champsimtrace.xz
L1I D-JOLT instruction prefetcher has been constructed!
CPU 0 L1D next line prefetcher
Heartbeat CPU 0 instructions: 10000000 cycles: 3458994 heartbeat IPC: 2.89101 cumulative IPC: 2.89101 (Simulation time: 0 hr 2 min 50 sec) 
Heartbeat CPU 0 instructions: 20000000 cycles: 6924784 heartbeat IPC: 2.88534 cumulative IPC: 2.88818 (Simulation time: 0 hr 5 min 37 sec) 
Heartbeat CPU 0 instructions: 30000003 cycles: 10432892 heartbeat IPC: 2.85054 cumulative IPC: 2.87552 (Simulation time: 0 hr 8 min 23 sec) 
Heartbeat CPU 0 instructions: 40000000 cycles: 13895398 heartbeat IPC: 2.88808 cumulative IPC: 2.87865 (Simulation time: 0 hr 11 min 13 sec) 
Heartbeat CPU 0 instructions: 50000002 cycles: 17357100 heartbeat IPC: 2.88875 cumulative IPC: 2.88067 (Simulation time: 0 hr 14 min 35 sec) 

Warmup complete CPU 0 instructions: 50000002 cycles: 17357100 (Simulation time: 0 hr 14 min 35 sec) 

Heartbeat CPU 0 instructions: 60000000 cycles: 22925658 heartbeat IPC: 1.7958 cumulative IPC: 1.7958 (Simulation time: 0 hr 17 min 43 sec) 
Heartbeat CPU 0 instructions: 70000001 cycles: 28446515 heartbeat IPC: 1.81131 cumulative IPC: 1.80352 (Simulation time: 0 hr 20 min 16 sec) 
Heartbeat CPU 0 instructions: 80000001 cycles: 33999143 heartbeat IPC: 1.80095 cumulative IPC: 1.80266 (Simulation time: 0 hr 22 min 50 sec) 
Heartbeat CPU 0 instructions: 90000002 cycles: 39528874 heartbeat IPC: 1.80841 cumulative IPC: 1.8041 (Simulation time: 0 hr 25 min 10 sec) 
Heartbeat CPU 0 instructions: 100000000 cycles: 45047563 heartbeat IPC: 1.81202 cumulative IPC: 1.80568 (Simulation time: 0 hr 26 min 30 sec) 
Finished CPU 0 instructions: 50000002 cycles: 27690466 cumulative IPC: 1.80568 (Simulation time: 0 hr 26 min 30 sec) 

ChampSim completed all CPUs

Region of Interest Statistics

CPU 0 cumulative IPC: 1.80568 instructions: 50000002 cycles: 27690466
L1D TOTAL     ACCESS:   20393790  HIT:   20333622  MISS:      60168
L1D LOAD      ACCESS:    6630302  HIT:    6595489  MISS:      34813
L1D RFO       ACCESS:    7342316  HIT:    7335095  MISS:       7221
L1D PREFETCH  ACCESS:    6421172  HIT:    6403038  MISS:      18134
L1D WRITEBACK ACCESS:          0  HIT:          0  MISS:          0
L1D PREFETCH  REQUESTED:    6631277  ISSUED:    6450810  USEFUL:       5461  USELESS:      12674
L1D AVERAGE MISS LATENCY: 17.8386 cycles
L1I TOTAL     ACCESS:   17347169  HIT:   12436013  MISS:    4911156
L1I LOAD      ACCESS:    8919672  HIT:    8886639  MISS:      33033
L1I RFO       ACCESS:          0  HIT:          0  MISS:          0
L1I PREFETCH  ACCESS:    8427497  HIT:    3549374  MISS:    4878123
L1I WRITEBACK ACCESS:          0  HIT:          0  MISS:          0
L1I PREFETCH  REQUESTED:    8739844  ISSUED:    8720131  USEFUL:    3958070  USELESS:     920014
L1I AVERAGE MISS LATENCY: 14.5847 cycles
L2C TOTAL     ACCESS:    7295751  HIT:    7293586  MISS:       2165
L2C LOAD      ACCESS:      35697  HIT:      35321  MISS:        376
L2C RFO       ACCESS:       7212  HIT:       7163  MISS:         49
L2C PREFETCH  ACCESS:    7237215  HIT:    7235485  MISS:       1730
L2C WRITEBACK ACCESS:      15627  HIT:      15617  MISS:         10
L2C PREFETCH  REQUESTED:    6022296  ISSUED:    6013089  USEFUL:        244  USELESS:        971
L2C AVERAGE MISS LATENCY: 164.805 cycles
LLC TOTAL     ACCESS:     967088  HIT:     964085  MISS:       3003
LLC LOAD      ACCESS:        375  HIT:        127  MISS:        248
LLC RFO       ACCESS:         49  HIT:         14  MISS:         35
LLC PREFETCH  ACCESS:     965826  HIT:     963119  MISS:       2707
LLC WRITEBACK ACCESS:        838  HIT:        825  MISS:         13
LLC PREFETCH  REQUESTED:          0  ISSUED:          0  USEFUL:         70  USELESS:        844
LLC AVERAGE MISS LATENCY: 275.663 cycles
Major fault: 0 Minor fault: 1934
CPU 0 L1D next line prefetcher final stats

DRAM Statistics
 CHANNEL 0
 RQ ROW_BUFFER_HIT:        584  ROW_BUFFER_MISS:       2406
 DBUS_CONGESTED:       1678
 WQ ROW_BUFFER_HIT:        284  ROW_BUFFER_MISS:       1660  FULL:          0

 AVG_CONGESTED_CYCLE: 6

CPU 0 Branch Prediction Accuracy: 99.8717% MPKI: 0.21174 Average ROB Occupancy at Mispredict: 244.857

Branch types
NOT_BRANCH: 41748436 83.4969%
BRANCH_DIRECT_JUMP: 468563 0.937126%
BRANCH_INDIRECT: 0 0%
BRANCH_CONDITIONAL: 5599755 11.1995%
BRANCH_DIRECT_CALL: 885106 1.77021%
BRANCH_INDIRECT_CALL: 206338 0.412676%
BRANCH_RETURN: 1091468 2.18294%
BRANCH_OTHER: 0 0%

