Initialize SIGNATURE TABLE
ST_SET: 1
ST_WAY: 256
ST_TAG_BIT: 16
ST_TAG_MASK: ffff

Initialize PATTERN TABLE
PT_SET: 512
PT_WAY: 4
SIG_DELTA_BIT: 7
C_SIG_BIT: 4
C_DELTA_BIT: 4

Initialize PREFETCH FILTER
FILTER_SET: 1024

*** ChampSim Multicore Out-of-Order Simulator ***

Warmup Instructions: 50000000
Simulation Instructions: 50000000
Number of CPUs: 1
LLC sets: 2048
LLC ways: 16
Off-chip DRAM Size: 4096 MB Channels: 1 Width: 64-bit Data Rate: 3200 MT/s

CPU 0 runs /home/ChampSim-master//dpc3_traces/server_022.champsimtrace.xz
L1I D-JOLT instruction prefetcher has been constructed!
CPU 0 L1D next line prefetcher
Heartbeat CPU 0 instructions: 10000002 cycles: 3623724 heartbeat IPC: 2.75959 cumulative IPC: 2.75959 (Simulation time: 0 hr 3 min 3 sec) 
Heartbeat CPU 0 instructions: 20000001 cycles: 7254213 heartbeat IPC: 2.75445 cumulative IPC: 2.75702 (Simulation time: 0 hr 6 min 6 sec) 
Heartbeat CPU 0 instructions: 30000003 cycles: 10878643 heartbeat IPC: 2.75906 cumulative IPC: 2.7577 (Simulation time: 0 hr 9 min 13 sec) 
Heartbeat CPU 0 instructions: 40000003 cycles: 14510466 heartbeat IPC: 2.75344 cumulative IPC: 2.75663 (Simulation time: 0 hr 12 min 31 sec) 
Heartbeat CPU 0 instructions: 50000002 cycles: 18132219 heartbeat IPC: 2.76109 cumulative IPC: 2.75752 (Simulation time: 0 hr 15 min 34 sec) 

Warmup complete CPU 0 instructions: 50000002 cycles: 18132219 (Simulation time: 0 hr 15 min 34 sec) 

Heartbeat CPU 0 instructions: 60000000 cycles: 34951554 heartbeat IPC: 0.594554 cumulative IPC: 0.594554 (Simulation time: 0 hr 19 min 9 sec) 
Heartbeat CPU 0 instructions: 70000001 cycles: 51911294 heartbeat IPC: 0.589632 cumulative IPC: 0.592083 (Simulation time: 0 hr 22 min 36 sec) 
Heartbeat CPU 0 instructions: 80000001 cycles: 68708197 heartbeat IPC: 0.595348 cumulative IPC: 0.593167 (Simulation time: 0 hr 25 min 33 sec) 
Heartbeat CPU 0 instructions: 90000003 cycles: 85738021 heartbeat IPC: 0.587205 cumulative IPC: 0.591665 (Simulation time: 0 hr 27 min 0 sec) 
Heartbeat CPU 0 instructions: 100000003 cycles: 102445802 heartbeat IPC: 0.598523 cumulative IPC: 0.593024 (Simulation time: 0 hr 27 min 33 sec) 
Finished CPU 0 instructions: 50000001 cycles: 84313583 cumulative IPC: 0.593024 (Simulation time: 0 hr 27 min 33 sec) 

ChampSim completed all CPUs

Region of Interest Statistics

CPU 0 cumulative IPC: 0.593024 instructions: 50000001 cycles: 84313583
L1D TOTAL     ACCESS:   18688935  HIT:   16478199  MISS:    2210736
L1D LOAD      ACCESS:    7052228  HIT:    6345386  MISS:     706842
L1D RFO       ACCESS:    5884924  HIT:    4905477  MISS:     979447
L1D PREFETCH  ACCESS:    5751783  HIT:    5227336  MISS:     524447
L1D WRITEBACK ACCESS:          0  HIT:          0  MISS:          0
L1D PREFETCH  REQUESTED:    7093591  ISSUED:    6886036  USEFUL:     203279  USELESS:     321173
L1D AVERAGE MISS LATENCY: 182.061 cycles
L1I TOTAL     ACCESS:   19063849  HIT:   15577779  MISS:    3486070
L1I LOAD      ACCESS:   10175961  HIT:   10139025  MISS:      36936
L1I RFO       ACCESS:          0  HIT:          0  MISS:          0
L1I PREFETCH  ACCESS:    8887888  HIT:    5438754  MISS:    3449134
L1I WRITEBACK ACCESS:          0  HIT:          0  MISS:          0
L1I PREFETCH  REQUESTED:    9542283  ISSUED:    9472621  USEFUL:    2754374  USELESS:     694760
L1I AVERAGE MISS LATENCY: 17.4559 cycles
L2C TOTAL     ACCESS:    8367181  HIT:    6497964  MISS:    1869217
L2C LOAD      ACCESS:     507248  HIT:     260890  MISS:     246358
L2C RFO       ACCESS:     978951  HIT:      20332  MISS:     958619
L2C PREFETCH  ACCESS:    5695812  HIT:    5034908  MISS:     660904
L2C WRITEBACK ACCESS:    1185170  HIT:    1181834  MISS:       3336
L2C PREFETCH  REQUESTED:    5061178  ISSUED:    5054228  USEFUL:      19355  USELESS:     641572
L2C AVERAGE MISS LATENCY: 221.278 cycles
LLC TOTAL     ACCESS:    4271017  HIT:    2870641  MISS:    1400376
LLC LOAD      ACCESS:     246285  HIT:     172989  MISS:      73296
LLC RFO       ACCESS:     958619  HIT:     140071  MISS:     818548
LLC PREFETCH  ACCESS:    1946891  HIT:    1440480  MISS:     506411
LLC WRITEBACK ACCESS:    1119222  HIT:    1117101  MISS:       2121
LLC PREFETCH  REQUESTED:          0  ISSUED:          0  USEFUL:      25923  USELESS:     480842
LLC AVERAGE MISS LATENCY: 297.746 cycles
Major fault: 0 Minor fault: 23509
CPU 0 L1D next line prefetcher final stats

DRAM Statistics
 CHANNEL 0
 RQ ROW_BUFFER_HIT:     398702  ROW_BUFFER_MISS:     999295
 DBUS_CONGESTED:    1446700
 WQ ROW_BUFFER_HIT:     261819  ROW_BUFFER_MISS:     639002  FULL:          0

 AVG_CONGESTED_CYCLE: 6

CPU 0 Branch Prediction Accuracy: 99.8317% MPKI: 0.27564 Average ROB Occupancy at Mispredict: 222.905

Branch types
NOT_BRANCH: 41811143 83.6223%
BRANCH_DIRECT_JUMP: 445742 0.891484%
BRANCH_INDIRECT: 48876 0.097752%
BRANCH_CONDITIONAL: 5859406 11.7188%
BRANCH_DIRECT_CALL: 758267 1.51653%
BRANCH_INDIRECT_CALL: 159103 0.318206%
BRANCH_RETURN: 917372 1.83474%
BRANCH_OTHER: 0 0%

