Initialize SIGNATURE TABLE
ST_SET: 1
ST_WAY: 256
ST_TAG_BIT: 16
ST_TAG_MASK: ffff

Initialize PATTERN TABLE
PT_SET: 512
PT_WAY: 4
SIG_DELTA_BIT: 7
C_SIG_BIT: 4
C_DELTA_BIT: 4

Initialize PREFETCH FILTER
FILTER_SET: 1024

*** ChampSim Multicore Out-of-Order Simulator ***

Warmup Instructions: 50000000
Simulation Instructions: 50000000
Number of CPUs: 1
LLC sets: 2048
LLC ways: 16
Off-chip DRAM Size: 4096 MB Channels: 1 Width: 64-bit Data Rate: 3200 MT/s

CPU 0 runs /home/ChampSim-master//dpc3_traces/server_019.champsimtrace.xz
L1I D-JOLT instruction prefetcher has been constructed!
CPU 0 L1D next line prefetcher
Heartbeat CPU 0 instructions: 10000002 cycles: 3623126 heartbeat IPC: 2.76005 cumulative IPC: 2.76005 (Simulation time: 0 hr 3 min 38 sec) 
Heartbeat CPU 0 instructions: 20000003 cycles: 7248078 heartbeat IPC: 2.75866 cumulative IPC: 2.75935 (Simulation time: 0 hr 7 min 14 sec) 
Heartbeat CPU 0 instructions: 30000002 cycles: 10871866 heartbeat IPC: 2.75954 cumulative IPC: 2.75942 (Simulation time: 0 hr 10 min 24 sec) 
Heartbeat CPU 0 instructions: 40000002 cycles: 14507820 heartbeat IPC: 2.75031 cumulative IPC: 2.75713 (Simulation time: 0 hr 13 min 28 sec) 
Heartbeat CPU 0 instructions: 50000001 cycles: 18132216 heartbeat IPC: 2.75908 cumulative IPC: 2.75752 (Simulation time: 0 hr 16 min 23 sec) 

Warmup complete CPU 0 instructions: 50000001 cycles: 18132216 (Simulation time: 0 hr 16 min 23 sec) 

Heartbeat CPU 0 instructions: 60000000 cycles: 37885060 heartbeat IPC: 0.506256 cumulative IPC: 0.506256 (Simulation time: 0 hr 20 min 0 sec) 
Heartbeat CPU 0 instructions: 70000002 cycles: 61426265 heartbeat IPC: 0.424787 cumulative IPC: 0.461957 (Simulation time: 0 hr 23 min 18 sec) 
Heartbeat CPU 0 instructions: 80000001 cycles: 81960431 heartbeat IPC: 0.486993 cumulative IPC: 0.470012 (Simulation time: 0 hr 25 min 52 sec) 
Heartbeat CPU 0 instructions: 90000002 cycles: 99546701 heartbeat IPC: 0.568625 cumulative IPC: 0.491313 (Simulation time: 0 hr 26 min 59 sec) 
Heartbeat CPU 0 instructions: 100000002 cycles: 117045098 heartbeat IPC: 0.571481 cumulative IPC: 0.505495 (Simulation time: 0 hr 27 min 31 sec) 
Finished CPU 0 instructions: 50000001 cycles: 98912882 cumulative IPC: 0.505495 (Simulation time: 0 hr 27 min 31 sec) 

ChampSim completed all CPUs

Region of Interest Statistics

CPU 0 cumulative IPC: 0.505495 instructions: 50000001 cycles: 98912882
L1D TOTAL     ACCESS:   18297919  HIT:   16074267  MISS:    2223652
L1D LOAD      ACCESS:    6976040  HIT:    6225275  MISS:     750765
L1D RFO       ACCESS:    5508027  HIT:    4606071  MISS:     901956
L1D PREFETCH  ACCESS:    5813852  HIT:    5242921  MISS:     570931
L1D WRITEBACK ACCESS:          0  HIT:          0  MISS:          0
L1D PREFETCH  REQUESTED:    7013131  ISSUED:    6828595  USEFUL:     201677  USELESS:     369162
L1D AVERAGE MISS LATENCY: 189.746 cycles
L1I TOTAL     ACCESS:   17677994  HIT:   14486641  MISS:    3191353
L1I LOAD      ACCESS:    9882536  HIT:    9837113  MISS:      45423
L1I RFO       ACCESS:          0  HIT:          0  MISS:          0
L1I PREFETCH  ACCESS:    7795458  HIT:    4649528  MISS:    3145930
L1I WRITEBACK ACCESS:          0  HIT:          0  MISS:          0
L1I PREFETCH  REQUESTED:    8443008  ISSUED:    8382121  USEFUL:    2435941  USELESS:     709921
L1I AVERAGE MISS LATENCY: 18.8216 cycles
L2C TOTAL     ACCESS:    7992075  HIT:    6098982  MISS:    1893093
L2C LOAD      ACCESS:     589827  HIT:     255676  MISS:     334151
L2C RFO       ACCESS:     901455  HIT:      17556  MISS:     883899
L2C PREFETCH  ACCESS:    5326169  HIT:    4653307  MISS:     672862
L2C WRITEBACK ACCESS:    1174624  HIT:    1172443  MISS:       2181
L2C PREFETCH  REQUESTED:    4993459  ISSUED:    4986976  USEFUL:      21523  USELESS:     649824
L2C AVERAGE MISS LATENCY: 226.907 cycles
LLC TOTAL     ACCESS:    4380790  HIT:    2757058  MISS:    1623732
LLC LOAD      ACCESS:     334106  HIT:     167660  MISS:     166446
LLC RFO       ACCESS:     883897  HIT:     114720  MISS:     769177
LLC PREFETCH  ACCESS:    2051342  HIT:    1365481  MISS:     685861
LLC WRITEBACK ACCESS:    1111445  HIT:    1109197  MISS:       2248
LLC PREFETCH  REQUESTED:          0  ISSUED:          0  USEFUL:      54393  USELESS:     630612
LLC AVERAGE MISS LATENCY: 282.625 cycles
Major fault: 0 Minor fault: 25695
CPU 0 L1D next line prefetcher final stats

DRAM Statistics
 CHANNEL 0
 RQ ROW_BUFFER_HIT:     397029  ROW_BUFFER_MISS:    1224193
 DBUS_CONGESTED:    1602646
 WQ ROW_BUFFER_HIT:     256777  ROW_BUFFER_MISS:     682578  FULL:          0

 AVG_CONGESTED_CYCLE: 6

CPU 0 Branch Prediction Accuracy: 99.2186% MPKI: 1.32192 Average ROB Occupancy at Mispredict: 179.415

Branch types
NOT_BRANCH: 41540785 83.0816%
BRANCH_DIRECT_JUMP: 462384 0.924768%
BRANCH_INDIRECT: 45460 0.09092%
BRANCH_CONDITIONAL: 6209281 12.4186%
BRANCH_DIRECT_CALL: 666241 1.33248%
BRANCH_INDIRECT_CALL: 204728 0.409456%
BRANCH_RETURN: 870978 1.74196%
BRANCH_OTHER: 0 0%

