Initialize SIGNATURE TABLE
ST_SET: 1
ST_WAY: 256
ST_TAG_BIT: 16
ST_TAG_MASK: ffff

Initialize PATTERN TABLE
PT_SET: 512
PT_WAY: 4
SIG_DELTA_BIT: 7
C_SIG_BIT: 4
C_DELTA_BIT: 4

Initialize PREFETCH FILTER
FILTER_SET: 1024

*** ChampSim Multicore Out-of-Order Simulator ***

Warmup Instructions: 50000000
Simulation Instructions: 50000000
Number of CPUs: 1
LLC sets: 2048
LLC ways: 16
Off-chip DRAM Size: 4096 MB Channels: 1 Width: 64-bit Data Rate: 3200 MT/s

CPU 0 runs /home/ChampSim-master//dpc3_traces/server_015.champsimtrace.xz
L1I D-JOLT instruction prefetcher has been constructed!
CPU 0 L1D next line prefetcher
Heartbeat CPU 0 instructions: 10000002 cycles: 3519420 heartbeat IPC: 2.84138 cumulative IPC: 2.84138 (Simulation time: 0 hr 2 min 59 sec) 
Heartbeat CPU 0 instructions: 20000001 cycles: 7107157 heartbeat IPC: 2.78727 cumulative IPC: 2.81406 (Simulation time: 0 hr 5 min 58 sec) 
Heartbeat CPU 0 instructions: 30000001 cycles: 10646127 heartbeat IPC: 2.82568 cumulative IPC: 2.81793 (Simulation time: 0 hr 8 min 57 sec) 
Heartbeat CPU 0 instructions: 40000002 cycles: 14194168 heartbeat IPC: 2.81846 cumulative IPC: 2.81806 (Simulation time: 0 hr 11 min 55 sec) 
Heartbeat CPU 0 instructions: 50000002 cycles: 17742428 heartbeat IPC: 2.81828 cumulative IPC: 2.8181 (Simulation time: 0 hr 14 min 45 sec) 

Warmup complete CPU 0 instructions: 50000002 cycles: 17742428 (Simulation time: 0 hr 14 min 45 sec) 

Heartbeat CPU 0 instructions: 60000002 cycles: 24039419 heartbeat IPC: 1.58806 cumulative IPC: 1.58806 (Simulation time: 0 hr 17 min 31 sec) 
Heartbeat CPU 0 instructions: 70000003 cycles: 30348269 heartbeat IPC: 1.58508 cumulative IPC: 1.58657 (Simulation time: 0 hr 20 min 11 sec) 
Heartbeat CPU 0 instructions: 80000000 cycles: 36656994 heartbeat IPC: 1.58511 cumulative IPC: 1.58608 (Simulation time: 0 hr 22 min 41 sec) 
Heartbeat CPU 0 instructions: 90000000 cycles: 42968903 heartbeat IPC: 1.58431 cumulative IPC: 1.58564 (Simulation time: 0 hr 24 min 57 sec) 
Heartbeat CPU 0 instructions: 100000002 cycles: 49278354 heartbeat IPC: 1.58492 cumulative IPC: 1.58549 (Simulation time: 0 hr 26 min 19 sec) 
Finished CPU 0 instructions: 50000000 cycles: 31535926 cumulative IPC: 1.58549 (Simulation time: 0 hr 26 min 19 sec) 

ChampSim completed all CPUs

Region of Interest Statistics

CPU 0 cumulative IPC: 1.58549 instructions: 50000000 cycles: 31535926
L1D TOTAL     ACCESS:   21828267  HIT:   21811495  MISS:      16772
L1D LOAD      ACCESS:    6691306  HIT:    6690772  MISS:        534
L1D RFO       ACCESS:    8561380  HIT:    8561285  MISS:         95
L1D PREFETCH  ACCESS:    6575581  HIT:    6559438  MISS:      16143
L1D WRITEBACK ACCESS:          0  HIT:          0  MISS:          0
L1D PREFETCH  REQUESTED:    6691366  ISSUED:    6579979  USEFUL:         84  USELESS:      16056
L1D AVERAGE MISS LATENCY: 16.17 cycles
L1I TOTAL     ACCESS:   19887488  HIT:   15708180  MISS:    4179308
L1I LOAD      ACCESS:    9818568  HIT:    9792061  MISS:      26507
L1I RFO       ACCESS:          0  HIT:          0  MISS:          0
L1I PREFETCH  ACCESS:   10068920  HIT:    5916119  MISS:    4152801
L1I WRITEBACK ACCESS:          0  HIT:          0  MISS:          0
L1I PREFETCH  REQUESTED:   10639533  ISSUED:   10402226  USEFUL:    2855730  USELESS:    1297072
L1I AVERAGE MISS LATENCY: 14.5002 cycles
L2C TOTAL     ACCESS:    5891916  HIT:    5891640  MISS:        276
L2C LOAD      ACCESS:      15840  HIT:      15781  MISS:         59
L2C RFO       ACCESS:         94  HIT:         89  MISS:          5
L2C PREFETCH  ACCESS:    5875632  HIT:    5875421  MISS:        211
L2C WRITEBACK ACCESS:        350  HIT:        349  MISS:          1
L2C PREFETCH  REQUESTED:    4118211  ISSUED:    4117395  USEFUL:        150  USELESS:        117
L2C AVERAGE MISS LATENCY: 101.435 cycles
LLC TOTAL     ACCESS:    1076738  HIT:    1075967  MISS:        771
LLC LOAD      ACCESS:         59  HIT:         43  MISS:         16
LLC RFO       ACCESS:          5  HIT:          4  MISS:          1
LLC PREFETCH  ACCESS:    1076598  HIT:    1075844  MISS:        754
LLC WRITEBACK ACCESS:         76  HIT:         76  MISS:          0
LLC PREFETCH  REQUESTED:          0  ISSUED:          0  USEFUL:          8  USELESS:        197
LLC AVERAGE MISS LATENCY: 284.918 cycles
Major fault: 0 Minor fault: 1893
CPU 0 L1D next line prefetcher final stats

DRAM Statistics
 CHANNEL 0
 RQ ROW_BUFFER_HIT:        121  ROW_BUFFER_MISS:        650
 DBUS_CONGESTED:        407
 WQ ROW_BUFFER_HIT:         81  ROW_BUFFER_MISS:        445  FULL:          0

 AVG_CONGESTED_CYCLE: 6

CPU 0 Branch Prediction Accuracy: 99.9085% MPKI: 0.15428 Average ROB Occupancy at Mispredict: 295.166

Branch types
NOT_BRANCH: 41573153 83.1463%
BRANCH_DIRECT_JUMP: 436254 0.872508%
BRANCH_INDIRECT: 0 0%
BRANCH_CONDITIONAL: 5395898 10.7918%
BRANCH_DIRECT_CALL: 1173391 2.34678%
BRANCH_INDIRECT_CALL: 123912 0.247824%
BRANCH_RETURN: 1297311 2.59462%
BRANCH_OTHER: 0 0%

