Initialize SIGNATURE TABLE
ST_SET: 1
ST_WAY: 256
ST_TAG_BIT: 16
ST_TAG_MASK: ffff

Initialize PATTERN TABLE
PT_SET: 512
PT_WAY: 4
SIG_DELTA_BIT: 7
C_SIG_BIT: 4
C_DELTA_BIT: 4

Initialize PREFETCH FILTER
FILTER_SET: 1024

*** ChampSim Multicore Out-of-Order Simulator ***

Warmup Instructions: 50000000
Simulation Instructions: 50000000
Number of CPUs: 1
LLC sets: 2048
LLC ways: 16
Off-chip DRAM Size: 4096 MB Channels: 1 Width: 64-bit Data Rate: 3200 MT/s

CPU 0 runs /home/ChampSim-master//dpc3_traces/server_013.champsimtrace.xz
L1I D-JOLT instruction prefetcher has been constructed!
CPU 0 L1D next line prefetcher
Heartbeat CPU 0 instructions: 10000000 cycles: 3210553 heartbeat IPC: 3.11473 cumulative IPC: 3.11473 (Simulation time: 0 hr 2 min 28 sec) 
Heartbeat CPU 0 instructions: 20000001 cycles: 6410386 heartbeat IPC: 3.12516 cumulative IPC: 3.11994 (Simulation time: 0 hr 4 min 53 sec) 
Heartbeat CPU 0 instructions: 30000002 cycles: 9614051 heartbeat IPC: 3.12143 cumulative IPC: 3.12043 (Simulation time: 0 hr 7 min 20 sec) 
Heartbeat CPU 0 instructions: 40000002 cycles: 12813072 heartbeat IPC: 3.12596 cumulative IPC: 3.12181 (Simulation time: 0 hr 10 min 16 sec) 
Heartbeat CPU 0 instructions: 50000000 cycles: 16011702 heartbeat IPC: 3.12634 cumulative IPC: 3.12272 (Simulation time: 0 hr 12 min 58 sec) 

Warmup complete CPU 0 instructions: 50000004 cycles: 16011703 (Simulation time: 0 hr 12 min 58 sec) 

Heartbeat CPU 0 instructions: 60000002 cycles: 23800494 heartbeat IPC: 1.2839 cumulative IPC: 1.2839 (Simulation time: 0 hr 15 min 8 sec) 
Heartbeat CPU 0 instructions: 70000002 cycles: 31767335 heartbeat IPC: 1.2552 cumulative IPC: 1.26939 (Simulation time: 0 hr 17 min 16 sec) 
Heartbeat CPU 0 instructions: 80000003 cycles: 39162233 heartbeat IPC: 1.35228 cumulative IPC: 1.29587 (Simulation time: 0 hr 19 min 19 sec) 
Heartbeat CPU 0 instructions: 90000003 cycles: 46770490 heartbeat IPC: 1.31436 cumulative IPC: 1.30044 (Simulation time: 0 hr 21 min 15 sec) 
Heartbeat CPU 0 instructions: 100000003 cycles: 54312389 heartbeat IPC: 1.32593 cumulative IPC: 1.30546 (Simulation time: 0 hr 23 min 3 sec) 
Finished CPU 0 instructions: 50000003 cycles: 38300687 cumulative IPC: 1.30546 (Simulation time: 0 hr 23 min 3 sec) 

ChampSim completed all CPUs

Region of Interest Statistics

CPU 0 cumulative IPC: 1.30546 instructions: 50000003 cycles: 38300687
L1D TOTAL     ACCESS:   17420404  HIT:   16353965  MISS:    1066439
L1D LOAD      ACCESS:    6362122  HIT:    5862538  MISS:     499584
L1D RFO       ACCESS:    4935124  HIT:    4854948  MISS:      80176
L1D PREFETCH  ACCESS:    6123158  HIT:    5636479  MISS:     486679
L1D WRITEBACK ACCESS:          0  HIT:          0  MISS:          0
L1D PREFETCH  REQUESTED:    6396510  ISSUED:    6300934  USEFUL:     135116  USELESS:     351572
L1D AVERAGE MISS LATENCY: 41.4661 cycles
L1I TOTAL     ACCESS:   14807229  HIT:   12892949  MISS:    1914280
L1I LOAD      ACCESS:    8669293  HIT:    8459434  MISS:     209859
L1I RFO       ACCESS:          0  HIT:          0  MISS:          0
L1I PREFETCH  ACCESS:    6137936  HIT:    4433515  MISS:    1704421
L1I WRITEBACK ACCESS:          0  HIT:          0  MISS:          0
L1I PREFETCH  REQUESTED:    6498342  ISSUED:    6359432  USEFUL:    1277142  USELESS:     427205
L1I AVERAGE MISS LATENCY: 31.0042 cycles
L2C TOTAL     ACCESS:    3937314  HIT:    2557165  MISS:    1380149
L2C LOAD      ACCESS:     620487  HIT:     276882  MISS:     343605
L2C RFO       ACCESS:      78852  HIT:      30600  MISS:      48252
L2C PREFETCH  ACCESS:    2962209  HIT:    1975136  MISS:     987073
L2C WRITEBACK ACCESS:     275766  HIT:     274547  MISS:       1219
L2C PREFETCH  REQUESTED:    2947082  ISSUED:    2944928  USEFUL:      44964  USELESS:     942236
L2C AVERAGE MISS LATENCY: 44.578 cycles
LLC TOTAL     ACCESS:    2491499  HIT:    2333298  MISS:     158201
LLC LOAD      ACCESS:     343487  HIT:     318546  MISS:      24941
LLC RFO       ACCESS:      48247  HIT:      39206  MISS:       9041
LLC PREFETCH  ACCESS:    1928087  HIT:    1804109  MISS:     123978
LLC WRITEBACK ACCESS:     171678  HIT:     171437  MISS:        241
LLC PREFETCH  REQUESTED:          0  ISSUED:          0  USEFUL:      15692  USELESS:     107757
LLC AVERAGE MISS LATENCY: 170.031 cycles
Major fault: 0 Minor fault: 6210
CPU 0 L1D next line prefetcher final stats

DRAM Statistics
 CHANNEL 0
 RQ ROW_BUFFER_HIT:      25628  ROW_BUFFER_MISS:     132325
 DBUS_CONGESTED:      65078
 WQ ROW_BUFFER_HIT:      11987  ROW_BUFFER_MISS:      49540  FULL:          0

 AVG_CONGESTED_CYCLE: 5

CPU 0 Branch Prediction Accuracy: 99.4114% MPKI: 1.0933 Average ROB Occupancy at Mispredict: 114.837

Branch types
NOT_BRANCH: 40713270 81.4265%
BRANCH_DIRECT_JUMP: 463701 0.927402%
BRANCH_INDIRECT: 146544 0.293088%
BRANCH_CONDITIONAL: 6981955 13.9639%
BRANCH_DIRECT_CALL: 665005 1.33001%
BRANCH_INDIRECT_CALL: 165152 0.330304%
BRANCH_RETURN: 864314 1.72863%
BRANCH_OTHER: 0 0%

