Initialize SIGNATURE TABLE
ST_SET: 1
ST_WAY: 256
ST_TAG_BIT: 16
ST_TAG_MASK: ffff

Initialize PATTERN TABLE
PT_SET: 512
PT_WAY: 4
SIG_DELTA_BIT: 7
C_SIG_BIT: 4
C_DELTA_BIT: 4

Initialize PREFETCH FILTER
FILTER_SET: 1024

*** ChampSim Multicore Out-of-Order Simulator ***

Warmup Instructions: 50000000
Simulation Instructions: 50000000
Number of CPUs: 1
LLC sets: 2048
LLC ways: 16
Off-chip DRAM Size: 4096 MB Channels: 1 Width: 64-bit Data Rate: 3200 MT/s

CPU 0 runs /home/ChampSim-master//dpc3_traces/server_031.champsimtrace.xz
L1I D-JOLT instruction prefetcher has been constructed!
CPU 0 L1D next line prefetcher
Heartbeat CPU 0 instructions: 10000003 cycles: 3522755 heartbeat IPC: 2.83869 cumulative IPC: 2.83869 (Simulation time: 0 hr 3 min 6 sec) 
Heartbeat CPU 0 instructions: 20000002 cycles: 7045238 heartbeat IPC: 2.83891 cumulative IPC: 2.8388 (Simulation time: 0 hr 6 min 2 sec) 
Heartbeat CPU 0 instructions: 30000002 cycles: 10567823 heartbeat IPC: 2.83882 cumulative IPC: 2.83881 (Simulation time: 0 hr 8 min 58 sec) 
Heartbeat CPU 0 instructions: 40000003 cycles: 14085111 heartbeat IPC: 2.8431 cumulative IPC: 2.83988 (Simulation time: 0 hr 12 min 22 sec) 
Heartbeat CPU 0 instructions: 50000001 cycles: 17605607 heartbeat IPC: 2.84051 cumulative IPC: 2.84 (Simulation time: 0 hr 15 min 45 sec) 

Warmup complete CPU 0 instructions: 50000001 cycles: 17605607 (Simulation time: 0 hr 15 min 45 sec) 

Heartbeat CPU 0 instructions: 60000001 cycles: 25083116 heartbeat IPC: 1.33734 cumulative IPC: 1.33734 (Simulation time: 0 hr 18 min 56 sec) 
Heartbeat CPU 0 instructions: 70000002 cycles: 32621022 heartbeat IPC: 1.32663 cumulative IPC: 1.33196 (Simulation time: 0 hr 21 min 43 sec) 
*** Reached end of trace for Core: 0 Repeating trace: /home/ChampSim-master//dpc3_traces/server_031.champsimtrace.xz
Heartbeat CPU 0 instructions: 80000000 cycles: 40015742 heartbeat IPC: 1.35232 cumulative IPC: 1.33868 (Simulation time: 0 hr 24 min 32 sec) 
Heartbeat CPU 0 instructions: 90000003 cycles: 47444711 heartbeat IPC: 1.34608 cumulative IPC: 1.34052 (Simulation time: 0 hr 26 min 18 sec) 
Heartbeat CPU 0 instructions: 100000000 cycles: 54850854 heartbeat IPC: 1.35023 cumulative IPC: 1.34245 (Simulation time: 0 hr 27 min 1 sec) 
Finished CPU 0 instructions: 50000000 cycles: 37245249 cumulative IPC: 1.34245 (Simulation time: 0 hr 27 min 1 sec) 

ChampSim completed all CPUs

Region of Interest Statistics

CPU 0 cumulative IPC: 1.34245 instructions: 50000000 cycles: 37245249
L1D TOTAL     ACCESS:   19512984  HIT:   17608608  MISS:    1904376
L1D LOAD      ACCESS:    6763130  HIT:    5891051  MISS:     872079
L1D RFO       ACCESS:    6327635  HIT:    6036268  MISS:     291367
L1D PREFETCH  ACCESS:    6422219  HIT:    5681289  MISS:     740930
L1D WRITEBACK ACCESS:          0  HIT:          0  MISS:          0
L1D PREFETCH  REQUESTED:    6823708  ISSUED:    6710194  USEFUL:     175133  USELESS:     565800
L1D AVERAGE MISS LATENCY: 22.7479 cycles
L1I TOTAL     ACCESS:   17140088  HIT:   13660766  MISS:    3479322
L1I LOAD      ACCESS:    9732394  HIT:    9683040  MISS:      49354
L1I RFO       ACCESS:          0  HIT:          0  MISS:          0
L1I PREFETCH  ACCESS:    7407694  HIT:    3977726  MISS:    3429968
L1I WRITEBACK ACCESS:          0  HIT:          0  MISS:          0
L1I PREFETCH  REQUESTED:    7872918  ISSUED:    7794350  USEFUL:    2993387  USELESS:     436603
L1I AVERAGE MISS LATENCY: 18.0295 cycles
L2C TOTAL     ACCESS:    7733507  HIT:    7101323  MISS:     632184
L2C LOAD      ACCESS:     860468  HIT:     728640  MISS:     131828
L2C RFO       ACCESS:     289327  HIT:     245445  MISS:      43882
L2C PREFETCH  ACCESS:    5966782  HIT:    5511653  MISS:     455129
L2C WRITEBACK ACCESS:     616930  HIT:     615585  MISS:       1345
L2C PREFETCH  REQUESTED:    5779886  ISSUED:    5760988  USEFUL:       4981  USELESS:     449520
L2C AVERAGE MISS LATENCY: 44.5289 cycles
LLC TOTAL     ACCESS:    2565269  HIT:    2479440  MISS:      85829
LLC LOAD      ACCESS:     131773  HIT:     112719  MISS:      19054
LLC RFO       ACCESS:      43866  HIT:      39631  MISS:       4235
LLC PREFETCH  ACCESS:    2304105  HIT:    2242188  MISS:      61917
LLC WRITEBACK ACCESS:      85525  HIT:      84902  MISS:        623
LLC PREFETCH  REQUESTED:          0  ISSUED:          0  USEFUL:       2713  USELESS:      59205
LLC AVERAGE MISS LATENCY: 161.26 cycles
Major fault: 0 Minor fault: 6048
CPU 0 L1D next line prefetcher final stats

DRAM Statistics
 CHANNEL 0
 RQ ROW_BUFFER_HIT:      23004  ROW_BUFFER_MISS:      62198
 DBUS_CONGESTED:      35427
 WQ ROW_BUFFER_HIT:        742  ROW_BUFFER_MISS:       5315  FULL:          0

 AVG_CONGESTED_CYCLE: 5

CPU 0 Branch Prediction Accuracy: 99.6894% MPKI: 0.58048 Average ROB Occupancy at Mispredict: 140.985

Branch types
NOT_BRANCH: 40655750 81.3115%
BRANCH_DIRECT_JUMP: 546483 1.09297%
BRANCH_INDIRECT: 172433 0.344866%
BRANCH_CONDITIONAL: 6207603 12.4152%
BRANCH_DIRECT_CALL: 1018500 2.037%
BRANCH_INDIRECT_CALL: 190373 0.380746%
BRANCH_RETURN: 1208856 2.41771%
BRANCH_OTHER: 0 0%

