Initialize SIGNATURE TABLE
ST_SET: 1
ST_WAY: 256
ST_TAG_BIT: 16
ST_TAG_MASK: ffff

Initialize PATTERN TABLE
PT_SET: 512
PT_WAY: 4
SIG_DELTA_BIT: 7
C_SIG_BIT: 4
C_DELTA_BIT: 4

Initialize PREFETCH FILTER
FILTER_SET: 1024

*** ChampSim Multicore Out-of-Order Simulator ***

Warmup Instructions: 50000000
Simulation Instructions: 50000000
Number of CPUs: 1
LLC sets: 2048
LLC ways: 16
Off-chip DRAM Size: 4096 MB Channels: 1 Width: 64-bit Data Rate: 3200 MT/s

CPU 0 runs /home/ChampSim-master//dpc3_traces/server_010.champsimtrace.xz
CPU 0 EPI prefetcher
CPU 0 L1D next line prefetcher
Heartbeat CPU 0 instructions: 10000000 cycles: 3197307 heartbeat IPC: 3.12763 cumulative IPC: 3.12763 (Simulation time: 0 hr 3 min 27 sec) 
Heartbeat CPU 0 instructions: 20000002 cycles: 6390914 heartbeat IPC: 3.13126 cumulative IPC: 3.12944 (Simulation time: 0 hr 6 min 56 sec) 
Heartbeat CPU 0 instructions: 30000001 cycles: 9587853 heartbeat IPC: 3.12799 cumulative IPC: 3.12896 (Simulation time: 0 hr 10 min 24 sec) 
Heartbeat CPU 0 instructions: 40000000 cycles: 12781325 heartbeat IPC: 3.13139 cumulative IPC: 3.12957 (Simulation time: 0 hr 13 min 42 sec) 
Heartbeat CPU 0 instructions: 50000003 cycles: 15980159 heartbeat IPC: 3.12614 cumulative IPC: 3.12888 (Simulation time: 0 hr 16 min 47 sec) 

Warmup complete CPU 0 instructions: 50000003 cycles: 15980159 (Simulation time: 0 hr 16 min 47 sec) 

Heartbeat CPU 0 instructions: 60000001 cycles: 23333031 heartbeat IPC: 1.36001 cumulative IPC: 1.36001 (Simulation time: 0 hr 19 min 30 sec) 
Heartbeat CPU 0 instructions: 70000003 cycles: 30762914 heartbeat IPC: 1.34592 cumulative IPC: 1.35293 (Simulation time: 0 hr 22 min 10 sec) 
Heartbeat CPU 0 instructions: 80000003 cycles: 38237036 heartbeat IPC: 1.33795 cumulative IPC: 1.3479 (Simulation time: 0 hr 24 min 42 sec) 
Heartbeat CPU 0 instructions: 90000002 cycles: 45469247 heartbeat IPC: 1.3827 cumulative IPC: 1.35643 (Simulation time: 0 hr 27 min 8 sec) 
Heartbeat CPU 0 instructions: 100000003 cycles: 66150103 heartbeat IPC: 0.483539 cumulative IPC: 0.996613 (Simulation time: 0 hr 30 min 20 sec) 
Finished CPU 0 instructions: 50000000 cycles: 50169944 cumulative IPC: 0.996613 (Simulation time: 0 hr 30 min 20 sec) 

ChampSim completed all CPUs

Region of Interest Statistics

CPU 0 cumulative IPC: 0.996613 instructions: 50000000 cycles: 50169944
L1D TOTAL     ACCESS:   19933868  HIT:   16708767  MISS:    3225101
L1D LOAD      ACCESS:    7720317  HIT:    6129681  MISS:    1590636
L1D RFO       ACCESS:    4712559  HIT:    4618336  MISS:      94223
L1D PREFETCH  ACCESS:    7500992  HIT:    5960750  MISS:    1540242
L1D WRITEBACK ACCESS:          0  HIT:          0  MISS:          0
L1D PREFETCH  REQUESTED:    7752482  ISSUED:    7654928  USEFUL:     119735  USELESS:    1420479
L1D AVERAGE MISS LATENCY: 22.7038 cycles
L1I TOTAL     ACCESS:   38374486  HIT:   36800309  MISS:    1574177
L1I LOAD      ACCESS:    9941174  HIT:    9843283  MISS:      97891
L1I RFO       ACCESS:          0  HIT:          0  MISS:          0
L1I PREFETCH  ACCESS:   28433312  HIT:   26957026  MISS:    1476286
L1I WRITEBACK ACCESS:          0  HIT:          0  MISS:          0
L1I PREFETCH  REQUESTED:   39287671  ISSUED:   39287671  USEFUL:    1109787  USELESS:     366478
L1I AVERAGE MISS LATENCY: 32.7111 cycles
L2C TOTAL     ACCESS:    6238498  HIT:    5113084  MISS:    1125414
L2C LOAD      ACCESS:    1644263  HIT:    1388098  MISS:     256165
L2C RFO       ACCESS:      93247  HIT:      49103  MISS:      44144
L2C PREFETCH  ACCESS:    4235631  HIT:    3411501  MISS:     824130
L2C WRITEBACK ACCESS:     265357  HIT:     264382  MISS:        975
L2C PREFETCH  REQUESTED:    6500960  ISSUED:    6493400  USEFUL:      31187  USELESS:     793442
L2C AVERAGE MISS LATENCY: 46.6128 cycles
LLC TOTAL     ACCESS:    2514602  HIT:    2374178  MISS:     140424
LLC LOAD      ACCESS:     248875  HIT:     231084  MISS:      17791
LLC RFO       ACCESS:      44139  HIT:      35683  MISS:       8456
LLC PREFETCH  ACCESS:    2072472  HIT:    1958665  MISS:     113807
LLC WRITEBACK ACCESS:     149116  HIT:     148746  MISS:        370
LLC PREFETCH  REQUESTED:          0  ISSUED:          0  USEFUL:      10258  USELESS:     103005
LLC AVERAGE MISS LATENCY: 176.539 cycles
Major fault: 0 Minor fault: 5603
CPU 0 L1I EPI prefetcher final stats
CPU 0 L1D next line prefetcher final stats

DRAM Statistics
 CHANNEL 0
 RQ ROW_BUFFER_HIT:      22933  ROW_BUFFER_MISS:     117111
 DBUS_CONGESTED:      66740
 WQ ROW_BUFFER_HIT:      10276  ROW_BUFFER_MISS:      44918  FULL:          0

 AVG_CONGESTED_CYCLE: 5

CPU 0 Branch Prediction Accuracy: 99.5528% MPKI: 0.89798 Average ROB Occupancy at Mispredict: 129.786

Branch types
NOT_BRANCH: 39958794 79.9176%
BRANCH_DIRECT_JUMP: 449946 0.899892%
BRANCH_INDIRECT: 140210 0.28042%
BRANCH_CONDITIONAL: 7679677 15.3594%
BRANCH_DIRECT_CALL: 701578 1.40316%
BRANCH_INDIRECT_CALL: 168971 0.337942%
BRANCH_RETURN: 900560 1.80112%
BRANCH_OTHER: 0 0%

