Initialize SIGNATURE TABLE
ST_SET: 1
ST_WAY: 256
ST_TAG_BIT: 16
ST_TAG_MASK: ffff

Initialize PATTERN TABLE
PT_SET: 512
PT_WAY: 4
SIG_DELTA_BIT: 7
C_SIG_BIT: 4
C_DELTA_BIT: 4

Initialize PREFETCH FILTER
FILTER_SET: 1024

*** ChampSim Multicore Out-of-Order Simulator ***

Warmup Instructions: 50000000
Simulation Instructions: 50000000
Number of CPUs: 1
LLC sets: 2048
LLC ways: 16
Off-chip DRAM Size: 4096 MB Channels: 1 Width: 64-bit Data Rate: 3200 MT/s

CPU 0 runs /home/ChampSim-master//dpc3_traces/server_029.champsimtrace.xz
L1I D-JOLT instruction prefetcher has been constructed!
CPU 0 L1D next line prefetcher
Heartbeat CPU 0 instructions: 10000001 cycles: 3492432 heartbeat IPC: 2.86333 cumulative IPC: 2.86333 (Simulation time: 0 hr 2 min 39 sec) 
Heartbeat CPU 0 instructions: 20000002 cycles: 6984932 heartbeat IPC: 2.86328 cumulative IPC: 2.86331 (Simulation time: 0 hr 5 min 21 sec) 
Heartbeat CPU 0 instructions: 30000003 cycles: 10478341 heartbeat IPC: 2.86253 cumulative IPC: 2.86305 (Simulation time: 0 hr 8 min 3 sec) 
Heartbeat CPU 0 instructions: 40000000 cycles: 13979076 heartbeat IPC: 2.85654 cumulative IPC: 2.86142 (Simulation time: 0 hr 10 min 54 sec) 
Heartbeat CPU 0 instructions: 50000000 cycles: 17479438 heartbeat IPC: 2.85685 cumulative IPC: 2.8605 (Simulation time: 0 hr 14 min 2 sec) 

Warmup complete CPU 0 instructions: 50000004 cycles: 17479439 (Simulation time: 0 hr 14 min 2 sec) 

Heartbeat CPU 0 instructions: 60000000 cycles: 24983817 heartbeat IPC: 1.33256 cumulative IPC: 1.33255 (Simulation time: 0 hr 17 min 1 sec) 
Heartbeat CPU 0 instructions: 70000003 cycles: 32636984 heartbeat IPC: 1.30665 cumulative IPC: 1.31947 (Simulation time: 0 hr 19 min 42 sec) 
Heartbeat CPU 0 instructions: 80000001 cycles: 40130728 heartbeat IPC: 1.33445 cumulative IPC: 1.32443 (Simulation time: 0 hr 22 min 17 sec) 
*** Reached end of trace for Core: 0 Repeating trace: /home/ChampSim-master//dpc3_traces/server_029.champsimtrace.xz
Heartbeat CPU 0 instructions: 90000000 cycles: 47534076 heartbeat IPC: 1.35074 cumulative IPC: 1.33091 (Simulation time: 0 hr 24 min 55 sec) 
Heartbeat CPU 0 instructions: 100000003 cycles: 54931945 heartbeat IPC: 1.35174 cumulative IPC: 1.33502 (Simulation time: 0 hr 26 min 28 sec) 
Finished CPU 0 instructions: 50000003 cycles: 37452507 cumulative IPC: 1.33502 (Simulation time: 0 hr 26 min 28 sec) 

ChampSim completed all CPUs

Region of Interest Statistics

CPU 0 cumulative IPC: 1.33502 instructions: 50000003 cycles: 37452507
L1D TOTAL     ACCESS:   19024117  HIT:   16927536  MISS:    2096581
L1D LOAD      ACCESS:    6719195  HIT:    5654135  MISS:    1065060
L1D RFO       ACCESS:    6103970  HIT:    5818514  MISS:     285456
L1D PREFETCH  ACCESS:    6200952  HIT:    5454887  MISS:     746065
L1D WRITEBACK ACCESS:          0  HIT:          0  MISS:          0
L1D PREFETCH  REQUESTED:    6782426  ISSUED:    6672368  USEFUL:     175715  USELESS:     570338
L1D AVERAGE MISS LATENCY: 21.6691 cycles
L1I TOTAL     ACCESS:   16830835  HIT:   13562629  MISS:    3268206
L1I LOAD      ACCESS:    9811791  HIT:    9762310  MISS:      49481
L1I RFO       ACCESS:          0  HIT:          0  MISS:          0
L1I PREFETCH  ACCESS:    7019044  HIT:    3800319  MISS:    3218725
L1I WRITEBACK ACCESS:          0  HIT:          0  MISS:          0
L1I PREFETCH  REQUESTED:    7458370  ISSUED:    7376472  USEFUL:    2887905  USELESS:     330830
L1I AVERAGE MISS LATENCY: 18.967 cycles
L2C TOTAL     ACCESS:    7651578  HIT:    6868060  MISS:     783518
L2C LOAD      ACCESS:     952816  HIT:     797791  MISS:     155025
L2C RFO       ACCESS:     283531  HIT:     214607  MISS:      68924
L2C PREFETCH  ACCESS:    5804651  HIT:    5248935  MISS:     555716
L2C WRITEBACK ACCESS:     610580  HIT:     606727  MISS:       3853
L2C PREFETCH  REQUESTED:    5804798  ISSUED:    5786539  USEFUL:       6684  USELESS:     548538
L2C AVERAGE MISS LATENCY: 40.7077 cycles
LLC TOTAL     ACCESS:    2673066  HIT:    2595544  MISS:      77522
LLC LOAD      ACCESS:     154576  HIT:     137536  MISS:      17040
LLC RFO       ACCESS:      68922  HIT:      65251  MISS:       3671
LLC PREFETCH  ACCESS:    2334057  HIT:    2277857  MISS:      56200
LLC WRITEBACK ACCESS:     115511  HIT:     114900  MISS:        611
LLC PREFETCH  REQUESTED:          0  ISSUED:          0  USEFUL:       2503  USELESS:      53927
LLC AVERAGE MISS LATENCY: 159.372 cycles
Major fault: 0 Minor fault: 5924
CPU 0 L1D next line prefetcher final stats

DRAM Statistics
 CHANNEL 0
 RQ ROW_BUFFER_HIT:      21886  ROW_BUFFER_MISS:      55012
 DBUS_CONGESTED:      32295
 WQ ROW_BUFFER_HIT:        498  ROW_BUFFER_MISS:       4194  FULL:          0

 AVG_CONGESTED_CYCLE: 5

CPU 0 Branch Prediction Accuracy: 99.7245% MPKI: 0.51862 Average ROB Occupancy at Mispredict: 141.295

Branch types
NOT_BRANCH: 40586606 81.1732%
BRANCH_DIRECT_JUMP: 525208 1.05042%
BRANCH_INDIRECT: 166359 0.332718%
BRANCH_CONDITIONAL: 6373092 12.7462%
BRANCH_DIRECT_CALL: 989263 1.97853%
BRANCH_INDIRECT_CALL: 184984 0.369968%
BRANCH_RETURN: 1174250 2.3485%
BRANCH_OTHER: 0 0%

