Initialize SIGNATURE TABLE
ST_SET: 1
ST_WAY: 256
ST_TAG_BIT: 16
ST_TAG_MASK: ffff

Initialize PATTERN TABLE
PT_SET: 512
PT_WAY: 4
SIG_DELTA_BIT: 7
C_SIG_BIT: 4
C_DELTA_BIT: 4

Initialize PREFETCH FILTER
FILTER_SET: 1024

*** ChampSim Multicore Out-of-Order Simulator ***

Warmup Instructions: 50000000
Simulation Instructions: 50000000
Number of CPUs: 1
LLC sets: 2048
LLC ways: 16
Off-chip DRAM Size: 4096 MB Channels: 1 Width: 64-bit Data Rate: 3200 MT/s

CPU 0 runs /home/ChampSim-master//dpc3_traces/server_013.champsimtrace.xz
L1I D-JOLT instruction prefetcher has been constructed!
CPU 0 L1D next line prefetcher
Heartbeat CPU 0 instructions: 10000000 cycles: 3211215 heartbeat IPC: 3.11409 cumulative IPC: 3.11409 (Simulation time: 0 hr 2 min 46 sec) 
Heartbeat CPU 0 instructions: 20000001 cycles: 6412100 heartbeat IPC: 3.12414 cumulative IPC: 3.1191 (Simulation time: 0 hr 5 min 30 sec) 
Heartbeat CPU 0 instructions: 30000002 cycles: 9616723 heartbeat IPC: 3.12049 cumulative IPC: 3.11957 (Simulation time: 0 hr 8 min 15 sec) 
Heartbeat CPU 0 instructions: 40000002 cycles: 12816513 heartbeat IPC: 3.12521 cumulative IPC: 3.12097 (Simulation time: 0 hr 10 min 59 sec) 
Heartbeat CPU 0 instructions: 50000000 cycles: 16015921 heartbeat IPC: 3.12558 cumulative IPC: 3.12189 (Simulation time: 0 hr 13 min 56 sec) 

Warmup complete CPU 0 instructions: 50000004 cycles: 16015922 (Simulation time: 0 hr 13 min 56 sec) 

Heartbeat CPU 0 instructions: 60000002 cycles: 23539844 heartbeat IPC: 1.32909 cumulative IPC: 1.32909 (Simulation time: 0 hr 16 min 43 sec) 
Heartbeat CPU 0 instructions: 70000002 cycles: 31270210 heartbeat IPC: 1.2936 cumulative IPC: 1.31111 (Simulation time: 0 hr 19 min 25 sec) 
Heartbeat CPU 0 instructions: 80000003 cycles: 38462062 heartbeat IPC: 1.39046 cumulative IPC: 1.33653 (Simulation time: 0 hr 22 min 7 sec) 
Heartbeat CPU 0 instructions: 90000003 cycles: 45847142 heartbeat IPC: 1.35408 cumulative IPC: 1.34088 (Simulation time: 0 hr 24 min 38 sec) 
Heartbeat CPU 0 instructions: 100000003 cycles: 53265816 heartbeat IPC: 1.34795 cumulative IPC: 1.34229 (Simulation time: 0 hr 26 min 40 sec) 
Finished CPU 0 instructions: 50000003 cycles: 37249895 cumulative IPC: 1.34229 (Simulation time: 0 hr 26 min 40 sec) 

ChampSim completed all CPUs

Region of Interest Statistics

CPU 0 cumulative IPC: 1.34229 instructions: 50000003 cycles: 37249895
L1D TOTAL     ACCESS:   17305090  HIT:   16238620  MISS:    1066470
L1D LOAD      ACCESS:    6307992  HIT:    5806583  MISS:     501409
L1D RFO       ACCESS:    4930039  HIT:    4849811  MISS:      80228
L1D PREFETCH  ACCESS:    6067059  HIT:    5582226  MISS:     484833
L1D WRITEBACK ACCESS:          0  HIT:          0  MISS:          0
L1D PREFETCH  REQUESTED:    6342755  ISSUED:    6248523  USEFUL:     133260  USELESS:     351583
L1D AVERAGE MISS LATENCY: 42.4996 cycles
L1I TOTAL     ACCESS:   16103002  HIT:   14089222  MISS:    2013780
L1I LOAD      ACCESS:    8710005  HIT:    8618893  MISS:      91112
L1I RFO       ACCESS:          0  HIT:          0  MISS:          0
L1I PREFETCH  ACCESS:    7392997  HIT:    5470329  MISS:    1922668
L1I WRITEBACK ACCESS:          0  HIT:          0  MISS:          0
L1I PREFETCH  REQUESTED:    8217473  ISSUED:    7752646  USEFUL:    1419600  USELESS:     502991
L1I AVERAGE MISS LATENCY: 32.1227 cycles
L2C TOTAL     ACCESS:    3998542  HIT:    2594353  MISS:    1404189
L2C LOAD      ACCESS:     526079  HIT:     237389  MISS:     288690
L2C RFO       ACCESS:      78886  HIT:      30176  MISS:      48710
L2C PREFETCH  ACCESS:    3117785  HIT:    2052769  MISS:    1065016
L2C WRITEBACK ACCESS:     275792  HIT:     274019  MISS:       1773
L2C PREFETCH  REQUESTED:    3000803  ISSUED:    2998073  USEFUL:      27363  USELESS:    1037800
L2C AVERAGE MISS LATENCY: 46.748 cycles
LLC TOTAL     ACCESS:    2536489  HIT:    2358982  MISS:     177507
LLC LOAD      ACCESS:     288601  HIT:     264789  MISS:      23812
LLC RFO       ACCESS:      48702  HIT:      39335  MISS:       9367
LLC PREFETCH  ACCESS:    2025711  HIT:    1881576  MISS:     144135
LLC WRITEBACK ACCESS:     173475  HIT:     173282  MISS:        193
LLC PREFETCH  REQUESTED:          0  ISSUED:          0  USEFUL:      12379  USELESS:     130452
LLC AVERAGE MISS LATENCY: 174.963 cycles
Major fault: 0 Minor fault: 6210
CPU 0 L1D next line prefetcher final stats

DRAM Statistics
 CHANNEL 0
 RQ ROW_BUFFER_HIT:      29282  ROW_BUFFER_MISS:     148009
 DBUS_CONGESTED:      73428
 WQ ROW_BUFFER_HIT:      12339  ROW_BUFFER_MISS:      50251  FULL:          0

 AVG_CONGESTED_CYCLE: 5

CPU 0 Branch Prediction Accuracy: 99.4114% MPKI: 1.0933 Average ROB Occupancy at Mispredict: 123.836

Branch types
NOT_BRANCH: 40713270 81.4265%
BRANCH_DIRECT_JUMP: 463701 0.927402%
BRANCH_INDIRECT: 146544 0.293088%
BRANCH_CONDITIONAL: 6981955 13.9639%
BRANCH_DIRECT_CALL: 665005 1.33001%
BRANCH_INDIRECT_CALL: 165152 0.330304%
BRANCH_RETURN: 864314 1.72863%
BRANCH_OTHER: 0 0%

