Initialize SIGNATURE TABLE
ST_SET: 1
ST_WAY: 256
ST_TAG_BIT: 16
ST_TAG_MASK: ffff

Initialize PATTERN TABLE
PT_SET: 512
PT_WAY: 4
SIG_DELTA_BIT: 7
C_SIG_BIT: 4
C_DELTA_BIT: 4

Initialize PREFETCH FILTER
FILTER_SET: 1024

*** ChampSim Multicore Out-of-Order Simulator ***

Warmup Instructions: 50000000
Simulation Instructions: 50000000
Number of CPUs: 1
LLC sets: 2048
LLC ways: 16
Off-chip DRAM Size: 4096 MB Channels: 1 Width: 64-bit Data Rate: 3200 MT/s

CPU 0 runs /home/ChampSim-master//dpc3_traces/server_025.champsimtrace.xz
CPU 0 EPI prefetcher
CPU 0 L1D next line prefetcher
Heartbeat CPU 0 instructions: 10000003 cycles: 3524469 heartbeat IPC: 2.83731 cumulative IPC: 2.83731 (Simulation time: 0 hr 3 min 2 sec) 
Heartbeat CPU 0 instructions: 20000000 cycles: 7056804 heartbeat IPC: 2.83099 cumulative IPC: 2.83414 (Simulation time: 0 hr 6 min 34 sec) 
Heartbeat CPU 0 instructions: 30000001 cycles: 10581347 heartbeat IPC: 2.83725 cumulative IPC: 2.83518 (Simulation time: 0 hr 9 min 34 sec) 
Heartbeat CPU 0 instructions: 40000003 cycles: 14111970 heartbeat IPC: 2.83236 cumulative IPC: 2.83447 (Simulation time: 0 hr 12 min 33 sec) 
Heartbeat CPU 0 instructions: 50000001 cycles: 17641051 heartbeat IPC: 2.8336 cumulative IPC: 2.8343 (Simulation time: 0 hr 15 min 29 sec) 

Warmup complete CPU 0 instructions: 50000001 cycles: 17641051 (Simulation time: 0 hr 15 min 29 sec) 

Heartbeat CPU 0 instructions: 60000002 cycles: 24402146 heartbeat IPC: 1.47905 cumulative IPC: 1.47905 (Simulation time: 0 hr 18 min 21 sec) 
Heartbeat CPU 0 instructions: 70000000 cycles: 31274227 heartbeat IPC: 1.45516 cumulative IPC: 1.46701 (Simulation time: 0 hr 21 min 11 sec) 
Heartbeat CPU 0 instructions: 80000002 cycles: 38056392 heartbeat IPC: 1.47446 cumulative IPC: 1.46948 (Simulation time: 0 hr 24 min 0 sec) 
Heartbeat CPU 0 instructions: 90000001 cycles: 44516057 heartbeat IPC: 1.54807 cumulative IPC: 1.48837 (Simulation time: 0 hr 26 min 44 sec) 
Heartbeat CPU 0 instructions: 100000003 cycles: 50702442 heartbeat IPC: 1.61645 cumulative IPC: 1.51234 (Simulation time: 0 hr 28 min 57 sec) 
Finished CPU 0 instructions: 50000002 cycles: 33061391 cumulative IPC: 1.51234 (Simulation time: 0 hr 28 min 57 sec) 

ChampSim completed all CPUs

Region of Interest Statistics

CPU 0 cumulative IPC: 1.51234 instructions: 50000002 cycles: 33061391
L1D TOTAL     ACCESS:   19969956  HIT:   18544594  MISS:    1425362
L1D LOAD      ACCESS:    6954321  HIT:    6334821  MISS:     619500
L1D RFO       ACCESS:    6374893  HIT:    6126538  MISS:     248355
L1D PREFETCH  ACCESS:    6640742  HIT:    6083235  MISS:     557507
L1D WRITEBACK ACCESS:          0  HIT:          0  MISS:          0
L1D PREFETCH  REQUESTED:    6995001  ISSUED:    6820834  USEFUL:     130278  USELESS:     427222
L1D AVERAGE MISS LATENCY: 23.0431 cycles
L1I TOTAL     ACCESS:   30401260  HIT:   27369685  MISS:    3031575
L1I LOAD      ACCESS:    9499298  HIT:    9442077  MISS:      57221
L1I RFO       ACCESS:          0  HIT:          0  MISS:          0
L1I PREFETCH  ACCESS:   20901962  HIT:   17927608  MISS:    2974354
L1I WRITEBACK ACCESS:          0  HIT:          0  MISS:          0
L1I PREFETCH  REQUESTED:   27063162  ISSUED:   27063162  USEFUL:    2432201  USELESS:     542183
L1I AVERAGE MISS LATENCY: 18.9165 cycles
L2C TOTAL     ACCESS:    6119105  HIT:    5459508  MISS:     659597
L2C LOAD      ACCESS:     616996  HIT:     509344  MISS:     107652
L2C RFO       ACCESS:     246772  HIT:     168618  MISS:      78154
L2C PREFETCH  ACCESS:    4758597  HIT:    4288973  MISS:     469624
L2C WRITEBACK ACCESS:     496740  HIT:     492573  MISS:       4167
L2C PREFETCH  REQUESTED:    5062363  ISSUED:    5049376  USEFUL:      10405  USELESS:     458677
L2C AVERAGE MISS LATENCY: 38.652 cycles
LLC TOTAL     ACCESS:    2106897  HIT:    2075382  MISS:      31515
LLC LOAD      ACCESS:     107536  HIT:     104324  MISS:       3212
LLC RFO       ACCESS:      78145  HIT:      67428  MISS:      10717
LLC PREFETCH  ACCESS:    1792234  HIT:    1774849  MISS:      17385
LLC WRITEBACK ACCESS:     128982  HIT:     128781  MISS:        201
LLC PREFETCH  REQUESTED:          0  ISSUED:          0  USEFUL:       1217  USELESS:      14247
LLC AVERAGE MISS LATENCY: 180.202 cycles
Major fault: 0 Minor fault: 2458
CPU 0 L1I EPI prefetcher final stats
CPU 0 L1D next line prefetcher final stats

DRAM Statistics
 CHANNEL 0
 RQ ROW_BUFFER_HIT:       9608  ROW_BUFFER_MISS:      21699
 DBUS_CONGESTED:      19310
 WQ ROW_BUFFER_HIT:       1424  ROW_BUFFER_MISS:      12481  FULL:          0

 AVG_CONGESTED_CYCLE: 6

CPU 0 Branch Prediction Accuracy: 99.8142% MPKI: 0.34676 Average ROB Occupancy at Mispredict: 203.918

Branch types
NOT_BRANCH: 40668919 81.3378%
BRANCH_DIRECT_JUMP: 531701 1.0634%
BRANCH_INDIRECT: 199025 0.39805%
BRANCH_CONDITIONAL: 6211497 12.423%
BRANCH_DIRECT_CALL: 1010911 2.02182%
BRANCH_INDIRECT_CALL: 183501 0.367002%
BRANCH_RETURN: 1194416 2.38883%
BRANCH_OTHER: 0 0%

