Initialize SIGNATURE TABLE
ST_SET: 1
ST_WAY: 256
ST_TAG_BIT: 16
ST_TAG_MASK: ffff

Initialize PATTERN TABLE
PT_SET: 512
PT_WAY: 4
SIG_DELTA_BIT: 7
C_SIG_BIT: 4
C_DELTA_BIT: 4

Initialize PREFETCH FILTER
FILTER_SET: 1024

*** ChampSim Multicore Out-of-Order Simulator ***

Warmup Instructions: 50000000
Simulation Instructions: 50000000
Number of CPUs: 1
LLC sets: 2048
LLC ways: 16
Off-chip DRAM Size: 4096 MB Channels: 1 Width: 64-bit Data Rate: 3200 MT/s

CPU 0 runs /home/ChampSim-master//dpc3_traces/server_003.champsimtrace.xz
CPU 0 EPI prefetcher
CPU 0 L1D next line prefetcher
Heartbeat CPU 0 instructions: 10000002 cycles: 3222788 heartbeat IPC: 3.1029 cumulative IPC: 3.1029 (Simulation time: 0 hr 3 min 18 sec) 
Heartbeat CPU 0 instructions: 20000000 cycles: 6541449 heartbeat IPC: 3.01326 cumulative IPC: 3.05743 (Simulation time: 0 hr 6 min 16 sec) 
Heartbeat CPU 0 instructions: 30000000 cycles: 9751311 heartbeat IPC: 3.1154 cumulative IPC: 3.07651 (Simulation time: 0 hr 9 min 16 sec) 
Heartbeat CPU 0 instructions: 40000001 cycles: 13166982 heartbeat IPC: 2.92768 cumulative IPC: 3.0379 (Simulation time: 0 hr 12 min 33 sec) 
Heartbeat CPU 0 instructions: 50000003 cycles: 16886169 heartbeat IPC: 2.68876 cumulative IPC: 2.961 (Simulation time: 0 hr 15 min 44 sec) 

Warmup complete CPU 0 instructions: 50000003 cycles: 16886169 (Simulation time: 0 hr 15 min 44 sec) 

Heartbeat CPU 0 instructions: 60000000 cycles: 25435345 heartbeat IPC: 1.1697 cumulative IPC: 1.1697 (Simulation time: 0 hr 18 min 33 sec) 
Heartbeat CPU 0 instructions: 70000003 cycles: 34072068 heartbeat IPC: 1.15785 cumulative IPC: 1.16374 (Simulation time: 0 hr 21 min 3 sec) 
Heartbeat CPU 0 instructions: 80000000 cycles: 43724637 heartbeat IPC: 1.03599 cumulative IPC: 1.1178 (Simulation time: 0 hr 23 min 38 sec) 
Heartbeat CPU 0 instructions: 90000001 cycles: 53535491 heartbeat IPC: 1.01928 cumulative IPC: 1.09143 (Simulation time: 0 hr 26 min 11 sec) 
Heartbeat CPU 0 instructions: 100000003 cycles: 63736483 heartbeat IPC: 0.980297 cumulative IPC: 1.06723 (Simulation time: 0 hr 28 min 11 sec) 
Finished CPU 0 instructions: 50000000 cycles: 46850314 cumulative IPC: 1.06723 (Simulation time: 0 hr 28 min 11 sec) 

ChampSim completed all CPUs

Region of Interest Statistics

CPU 0 cumulative IPC: 1.06723 instructions: 50000000 cycles: 46850314
L1D TOTAL     ACCESS:   19916464  HIT:   18775707  MISS:    1140757
L1D LOAD      ACCESS:    7814585  HIT:    7283811  MISS:     530774
L1D RFO       ACCESS:    4548457  HIT:    4431095  MISS:     117362
L1D PREFETCH  ACCESS:    7553422  HIT:    7060801  MISS:     492621
L1D WRITEBACK ACCESS:          0  HIT:          0  MISS:          0
L1D PREFETCH  REQUESTED:    7874173  ISSUED:    7782707  USEFUL:     154433  USELESS:     338147
L1D AVERAGE MISS LATENCY: 55.8415 cycles
L1I TOTAL     ACCESS:   37706504  HIT:   36328289  MISS:    1378215
L1I LOAD      ACCESS:    9296083  HIT:    9243458  MISS:      52625
L1I RFO       ACCESS:          0  HIT:          0  MISS:          0
L1I PREFETCH  ACCESS:   28410421  HIT:   27084831  MISS:    1325590
L1I WRITEBACK ACCESS:          0  HIT:          0  MISS:          0
L1I PREFETCH  REQUESTED:   39225429  ISSUED:   39225429  USEFUL:     911048  USELESS:     414556
L1I AVERAGE MISS LATENCY: 40.91 cycles
L2C TOTAL     ACCESS:    3382396  HIT:    2394474  MISS:     987922
L2C LOAD      ACCESS:     536444  HIT:     305313  MISS:     231131
L2C RFO       ACCESS:     114656  HIT:      40419  MISS:      74237
L2C PREFETCH  ACCESS:    2447039  HIT:    1765577  MISS:     681462
L2C WRITEBACK ACCESS:     284257  HIT:     283165  MISS:       1092
L2C PREFETCH  REQUESTED:    2770991  ISSUED:    2768044  USEFUL:      27200  USELESS:     651739
L2C AVERAGE MISS LATENCY: 85.822 cycles
LLC TOTAL     ACCESS:    1844689  HIT:    1473073  MISS:     371616
LLC LOAD      ACCESS:     230958  HIT:     170822  MISS:      60136
LLC RFO       ACCESS:      74237  HIT:      32448  MISS:      41789
LLC PREFETCH  ACCESS:    1374168  HIT:    1105866  MISS:     268302
LLC WRITEBACK ACCESS:     165326  HIT:     163937  MISS:       1389
LLC PREFETCH  REQUESTED:          0  ISSUED:          0  USEFUL:      25268  USELESS:     232074
LLC AVERAGE MISS LATENCY: 201.21 cycles
Major fault: 0 Minor fault: 7779
CPU 0 L1I EPI prefetcher final stats
CPU 0 L1D next line prefetcher final stats

DRAM Statistics
 CHANNEL 0
 RQ ROW_BUFFER_HIT:      87259  ROW_BUFFER_MISS:     282918
 DBUS_CONGESTED:     193330
 WQ ROW_BUFFER_HIT:      21608  ROW_BUFFER_MISS:      81085  FULL:          0

 AVG_CONGESTED_CYCLE: 5

CPU 0 Branch Prediction Accuracy: 95.439% MPKI: 9.02702 Average ROB Occupancy at Mispredict: 71.4377

Branch types
NOT_BRANCH: 40104066 80.2081%
BRANCH_DIRECT_JUMP: 497928 0.995856%
BRANCH_INDIRECT: 130587 0.261174%
BRANCH_CONDITIONAL: 7219014 14.438%
BRANCH_DIRECT_CALL: 625807 1.25161%
BRANCH_INDIRECT_CALL: 389787 0.779574%
BRANCH_RETURN: 1032747 2.06549%
BRANCH_OTHER: 0 0%

