Initialize SIGNATURE TABLE
ST_SET: 1
ST_WAY: 256
ST_TAG_BIT: 16
ST_TAG_MASK: ffff

Initialize PATTERN TABLE
PT_SET: 512
PT_WAY: 4
SIG_DELTA_BIT: 7
C_SIG_BIT: 4
C_DELTA_BIT: 4

Initialize PREFETCH FILTER
FILTER_SET: 1024

*** ChampSim Multicore Out-of-Order Simulator ***

Warmup Instructions: 50000000
Simulation Instructions: 50000000
Number of CPUs: 1
LLC sets: 2048
LLC ways: 16
Off-chip DRAM Size: 4096 MB Channels: 1 Width: 64-bit Data Rate: 3200 MT/s

CPU 0 runs /home/ChampSim-master//dpc3_traces/server_022.champsimtrace.xz
L1I D-JOLT instruction prefetcher has been constructed!
CPU 0 L1D next line prefetcher
Heartbeat CPU 0 instructions: 10000002 cycles: 3623403 heartbeat IPC: 2.75984 cumulative IPC: 2.75984 (Simulation time: 0 hr 3 min 9 sec) 
Heartbeat CPU 0 instructions: 20000001 cycles: 7253529 heartbeat IPC: 2.75472 cumulative IPC: 2.75728 (Simulation time: 0 hr 6 min 17 sec) 
Heartbeat CPU 0 instructions: 30000003 cycles: 10877441 heartbeat IPC: 2.75945 cumulative IPC: 2.758 (Simulation time: 0 hr 9 min 34 sec) 
Heartbeat CPU 0 instructions: 40000003 cycles: 14508542 heartbeat IPC: 2.75399 cumulative IPC: 2.757 (Simulation time: 0 hr 12 min 20 sec) 
Heartbeat CPU 0 instructions: 50000002 cycles: 18129591 heartbeat IPC: 2.76163 cumulative IPC: 2.75792 (Simulation time: 0 hr 15 min 21 sec) 

Warmup complete CPU 0 instructions: 50000002 cycles: 18129591 (Simulation time: 0 hr 15 min 21 sec) 

Heartbeat CPU 0 instructions: 60000000 cycles: 34886715 heartbeat IPC: 0.596761 cumulative IPC: 0.596761 (Simulation time: 0 hr 19 min 0 sec) 
Heartbeat CPU 0 instructions: 70000001 cycles: 51908326 heartbeat IPC: 0.587489 cumulative IPC: 0.592088 (Simulation time: 0 hr 22 min 16 sec) 
Heartbeat CPU 0 instructions: 80000001 cycles: 68489720 heartbeat IPC: 0.603086 cumulative IPC: 0.595709 (Simulation time: 0 hr 25 min 11 sec) 
Heartbeat CPU 0 instructions: 90000003 cycles: 85321350 heartbeat IPC: 0.59412 cumulative IPC: 0.595311 (Simulation time: 0 hr 26 min 37 sec) 
Heartbeat CPU 0 instructions: 100000003 cycles: 102091394 heartbeat IPC: 0.596301 cumulative IPC: 0.595509 (Simulation time: 0 hr 27 min 11 sec) 
Finished CPU 0 instructions: 50000001 cycles: 83961803 cumulative IPC: 0.595509 (Simulation time: 0 hr 27 min 11 sec) 

ChampSim completed all CPUs

Region of Interest Statistics

CPU 0 cumulative IPC: 0.595509 instructions: 50000001 cycles: 83961803
L1D TOTAL     ACCESS:   18693009  HIT:   16482210  MISS:    2210799
L1D LOAD      ACCESS:    7051658  HIT:    6346986  MISS:     704672
L1D RFO       ACCESS:    5885090  HIT:    4905634  MISS:     979456
L1D PREFETCH  ACCESS:    5756261  HIT:    5229590  MISS:     526671
L1D WRITEBACK ACCESS:          0  HIT:          0  MISS:          0
L1D PREFETCH  REQUESTED:    7093242  ISSUED:    6886408  USEFUL:     205430  USELESS:     321249
L1D AVERAGE MISS LATENCY: 182.204 cycles
L1I TOTAL     ACCESS:   19038289  HIT:   15478451  MISS:    3559838
L1I LOAD      ACCESS:   10181812  HIT:   10144240  MISS:      37572
L1I RFO       ACCESS:          0  HIT:          0  MISS:          0
L1I PREFETCH  ACCESS:    8856477  HIT:    5334211  MISS:    3522266
L1I WRITEBACK ACCESS:          0  HIT:          0  MISS:          0
L1I PREFETCH  REQUESTED:    9501925  ISSUED:    9448265  USEFUL:    2788826  USELESS:     733450
L1I AVERAGE MISS LATENCY: 17.4828 cycles
L2C TOTAL     ACCESS:    8475022  HIT:    6605515  MISS:    1869507
L2C LOAD      ACCESS:     508084  HIT:     261584  MISS:     246500
L2C RFO       ACCESS:     978950  HIT:      20356  MISS:     958594
L2C PREFETCH  ACCESS:    5802843  HIT:    5141267  MISS:     661576
L2C WRITEBACK ACCESS:    1185145  HIT:    1182308  MISS:       2837
L2C PREFETCH  REQUESTED:    5160544  ISSUED:    5154632  USEFUL:      19324  USELESS:     642300
L2C AVERAGE MISS LATENCY: 221.268 cycles
LLC TOTAL     ACCESS:    4290886  HIT:    2885268  MISS:    1405618
LLC LOAD      ACCESS:     246389  HIT:     174152  MISS:      72237
LLC RFO       ACCESS:     958593  HIT:     139987  MISS:     818606
LLC PREFETCH  ACCESS:    1967312  HIT:    1454607  MISS:     512705
LLC WRITEBACK ACCESS:    1118592  HIT:    1116522  MISS:       2070
LLC PREFETCH  REQUESTED:          0  ISSUED:          0  USEFUL:      27654  USELESS:     485293
LLC AVERAGE MISS LATENCY: 298.188 cycles
Major fault: 0 Minor fault: 23509
CPU 0 L1D next line prefetcher final stats

DRAM Statistics
 CHANNEL 0
 RQ ROW_BUFFER_HIT:     399551  ROW_BUFFER_MISS:    1003698
 DBUS_CONGESTED:    1454234
 WQ ROW_BUFFER_HIT:     260351  ROW_BUFFER_MISS:     640707  FULL:          0

 AVG_CONGESTED_CYCLE: 6

CPU 0 Branch Prediction Accuracy: 99.8317% MPKI: 0.27564 Average ROB Occupancy at Mispredict: 222.997

Branch types
NOT_BRANCH: 41811146 83.6223%
BRANCH_DIRECT_JUMP: 445742 0.891484%
BRANCH_INDIRECT: 48876 0.097752%
BRANCH_CONDITIONAL: 5859407 11.7188%
BRANCH_DIRECT_CALL: 758267 1.51653%
BRANCH_INDIRECT_CALL: 159103 0.318206%
BRANCH_RETURN: 917372 1.83474%
BRANCH_OTHER: 0 0%

