Initialize SIGNATURE TABLE
ST_SET: 1
ST_WAY: 256
ST_TAG_BIT: 16
ST_TAG_MASK: ffff

Initialize PATTERN TABLE
PT_SET: 512
PT_WAY: 4
SIG_DELTA_BIT: 7
C_SIG_BIT: 4
C_DELTA_BIT: 4

Initialize PREFETCH FILTER
FILTER_SET: 1024

*** ChampSim Multicore Out-of-Order Simulator ***

Warmup Instructions: 50000000
Simulation Instructions: 50000000
Number of CPUs: 1
LLC sets: 2048
LLC ways: 16
Off-chip DRAM Size: 4096 MB Channels: 1 Width: 64-bit Data Rate: 3200 MT/s

CPU 0 runs /home/ChampSim-master//dpc3_traces/server_031.champsimtrace.xz
L1I D-JOLT instruction prefetcher has been constructed!
CPU 0 L1D next line prefetcher
Heartbeat CPU 0 instructions: 10000003 cycles: 3520825 heartbeat IPC: 2.84024 cumulative IPC: 2.84024 (Simulation time: 0 hr 3 min 17 sec) 
Heartbeat CPU 0 instructions: 20000002 cycles: 7040180 heartbeat IPC: 2.84143 cumulative IPC: 2.84084 (Simulation time: 0 hr 6 min 46 sec) 
Heartbeat CPU 0 instructions: 30000002 cycles: 10559795 heartbeat IPC: 2.84122 cumulative IPC: 2.84096 (Simulation time: 0 hr 9 min 45 sec) 
Heartbeat CPU 0 instructions: 40000003 cycles: 14074807 heartbeat IPC: 2.84494 cumulative IPC: 2.84196 (Simulation time: 0 hr 12 min 39 sec) 
Heartbeat CPU 0 instructions: 50000001 cycles: 17591866 heartbeat IPC: 2.84328 cumulative IPC: 2.84222 (Simulation time: 0 hr 15 min 26 sec) 

Warmup complete CPU 0 instructions: 50000001 cycles: 17591866 (Simulation time: 0 hr 15 min 26 sec) 

Heartbeat CPU 0 instructions: 60000001 cycles: 25057723 heartbeat IPC: 1.33943 cumulative IPC: 1.33943 (Simulation time: 0 hr 18 min 9 sec) 
Heartbeat CPU 0 instructions: 70000002 cycles: 32561250 heartbeat IPC: 1.33271 cumulative IPC: 1.33606 (Simulation time: 0 hr 20 min 51 sec) 
*** Reached end of trace for Core: 0 Repeating trace: /home/ChampSim-master//dpc3_traces/server_031.champsimtrace.xz
Heartbeat CPU 0 instructions: 80000000 cycles: 39937966 heartbeat IPC: 1.35562 cumulative IPC: 1.34252 (Simulation time: 0 hr 23 min 26 sec) 
Heartbeat CPU 0 instructions: 90000003 cycles: 47363002 heartbeat IPC: 1.3468 cumulative IPC: 1.34358 (Simulation time: 0 hr 25 min 30 sec) 
Heartbeat CPU 0 instructions: 100000000 cycles: 54751792 heartbeat IPC: 1.3534 cumulative IPC: 1.34554 (Simulation time: 0 hr 26 min 40 sec) 
Finished CPU 0 instructions: 50000000 cycles: 37159928 cumulative IPC: 1.34554 (Simulation time: 0 hr 26 min 40 sec) 

ChampSim completed all CPUs

Region of Interest Statistics

CPU 0 cumulative IPC: 1.34554 instructions: 50000000 cycles: 37159928
L1D TOTAL     ACCESS:   19507601  HIT:   17603284  MISS:    1904317
L1D LOAD      ACCESS:    6760454  HIT:    5887822  MISS:     872632
L1D RFO       ACCESS:    6328174  HIT:    6037094  MISS:     291080
L1D PREFETCH  ACCESS:    6418973  HIT:    5678368  MISS:     740605
L1D WRITEBACK ACCESS:          0  HIT:          0  MISS:          0
L1D PREFETCH  REQUESTED:    6821575  ISSUED:    6707076  USEFUL:     174856  USELESS:     565754
L1D AVERAGE MISS LATENCY: 22.7151 cycles
L1I TOTAL     ACCESS:   17114549  HIT:   13640868  MISS:    3473681
L1I LOAD      ACCESS:    9733623  HIT:    9700902  MISS:      32721
L1I RFO       ACCESS:          0  HIT:          0  MISS:          0
L1I PREFETCH  ACCESS:    7380926  HIT:    3939966  MISS:    3440960
L1I WRITEBACK ACCESS:          0  HIT:          0  MISS:          0
L1I PREFETCH  REQUESTED:    7841158  ISSUED:    7762264  USEFUL:    3007253  USELESS:     433728
L1I AVERAGE MISS LATENCY: 18.0529 cycles
L2C TOTAL     ACCESS:    7545123  HIT:    6892881  MISS:     652242
L2C LOAD      ACCESS:     853873  HIT:     727665  MISS:     126208
L2C RFO       ACCESS:     289411  HIT:     244713  MISS:      44698
L2C PREFETCH  ACCESS:    5784911  HIT:    5305157  MISS:     479754
L2C WRITEBACK ACCESS:     616928  HIT:     615346  MISS:       1582
L2C PREFETCH  REQUESTED:    4718366  ISSUED:    4713513  USEFUL:       6123  USELESS:     473087
L2C AVERAGE MISS LATENCY: 43.5641 cycles
LLC TOTAL     ACCESS:    2018647  HIT:    1942142  MISS:      76505
LLC LOAD      ACCESS:     126156  HIT:     107518  MISS:      18638
LLC RFO       ACCESS:      44696  HIT:      40552  MISS:       4144
LLC PREFETCH  ACCESS:    1758335  HIT:    1705129  MISS:      53206
LLC WRITEBACK ACCESS:      89460  HIT:      88943  MISS:        517
LLC PREFETCH  REQUESTED:          0  ISSUED:          0  USEFUL:       2315  USELESS:      50722
LLC AVERAGE MISS LATENCY: 158.296 cycles
Major fault: 0 Minor fault: 6046
CPU 0 L1D next line prefetcher final stats

DRAM Statistics
 CHANNEL 0
 RQ ROW_BUFFER_HIT:      20559  ROW_BUFFER_MISS:      55427
 DBUS_CONGESTED:      28929
 WQ ROW_BUFFER_HIT:        742  ROW_BUFFER_MISS:       5103  FULL:          0

 AVG_CONGESTED_CYCLE: 4

CPU 0 Branch Prediction Accuracy: 99.6894% MPKI: 0.58048 Average ROB Occupancy at Mispredict: 143.78

Branch types
NOT_BRANCH: 40655743 81.3115%
BRANCH_DIRECT_JUMP: 546483 1.09297%
BRANCH_INDIRECT: 172433 0.344866%
BRANCH_CONDITIONAL: 6207603 12.4152%
BRANCH_DIRECT_CALL: 1018499 2.037%
BRANCH_INDIRECT_CALL: 190373 0.380746%
BRANCH_RETURN: 1208856 2.41771%
BRANCH_OTHER: 0 0%

