Initialize SIGNATURE TABLE
ST_SET: 1
ST_WAY: 256
ST_TAG_BIT: 16
ST_TAG_MASK: ffff

Initialize PATTERN TABLE
PT_SET: 512
PT_WAY: 4
SIG_DELTA_BIT: 7
C_SIG_BIT: 4
C_DELTA_BIT: 4

Initialize PREFETCH FILTER
FILTER_SET: 1024

*** ChampSim Multicore Out-of-Order Simulator ***

Warmup Instructions: 50000000
Simulation Instructions: 50000000
Number of CPUs: 1
LLC sets: 2048
LLC ways: 16
Off-chip DRAM Size: 4096 MB Channels: 1 Width: 64-bit Data Rate: 3200 MT/s

CPU 0 runs /home/ChampSim-master//dpc3_traces/server_009.champsimtrace.xz
L1I D-JOLT instruction prefetcher has been constructed!
CPU 0 L1D next line prefetcher
Heartbeat CPU 0 instructions: 10000003 cycles: 3196973 heartbeat IPC: 3.12796 cumulative IPC: 3.12796 (Simulation time: 0 hr 3 min 7 sec) 
Heartbeat CPU 0 instructions: 20000001 cycles: 6387445 heartbeat IPC: 3.13433 cumulative IPC: 3.13114 (Simulation time: 0 hr 5 min 53 sec) 
Heartbeat CPU 0 instructions: 30000001 cycles: 9592972 heartbeat IPC: 3.11961 cumulative IPC: 3.12729 (Simulation time: 0 hr 8 min 50 sec) 
Heartbeat CPU 0 instructions: 40000003 cycles: 12794612 heartbeat IPC: 3.1234 cumulative IPC: 3.12632 (Simulation time: 0 hr 11 min 39 sec) 
Heartbeat CPU 0 instructions: 50000000 cycles: 16052469 heartbeat IPC: 3.0695 cumulative IPC: 3.11479 (Simulation time: 0 hr 14 min 24 sec) 

Warmup complete CPU 0 instructions: 50000004 cycles: 16052470 (Simulation time: 0 hr 14 min 24 sec) 

Heartbeat CPU 0 instructions: 60000002 cycles: 31738054 heartbeat IPC: 0.637528 cumulative IPC: 0.637528 (Simulation time: 0 hr 17 min 44 sec) 
Heartbeat CPU 0 instructions: 70000003 cycles: 52808919 heartbeat IPC: 0.474589 cumulative IPC: 0.544122 (Simulation time: 0 hr 21 min 45 sec) 
Heartbeat CPU 0 instructions: 80000000 cycles: 59998194 heartbeat IPC: 1.39096 cumulative IPC: 0.68266 (Simulation time: 0 hr 23 min 52 sec) 
Heartbeat CPU 0 instructions: 90000001 cycles: 67320661 heartbeat IPC: 1.36566 cumulative IPC: 0.780211 (Simulation time: 0 hr 25 min 24 sec) 
Heartbeat CPU 0 instructions: 100000003 cycles: 74531964 heartbeat IPC: 1.38671 cumulative IPC: 0.855001 (Simulation time: 0 hr 26 min 21 sec) 
Finished CPU 0 instructions: 50000003 cycles: 58479495 cumulative IPC: 0.855001 (Simulation time: 0 hr 26 min 21 sec) 

ChampSim completed all CPUs

Region of Interest Statistics

CPU 0 cumulative IPC: 0.855001 instructions: 50000003 cycles: 58479495
L1D TOTAL     ACCESS:   21631649  HIT:   17052135  MISS:    4579514
L1D LOAD      ACCESS:    8631778  HIT:    6351658  MISS:    2280120
L1D RFO       ACCESS:    4581146  HIT:    4476785  MISS:     104361
L1D PREFETCH  ACCESS:    8418725  HIT:    6223692  MISS:    2195033
L1D WRITEBACK ACCESS:          0  HIT:          0  MISS:          0
L1D PREFETCH  REQUESTED:    8664271  ISSUED:    8567056  USEFUL:     106540  USELESS:    2088492
L1D AVERAGE MISS LATENCY: 20.3962 cycles
L1I TOTAL     ACCESS:   19182227  HIT:   17523694  MISS:    1658533
L1I LOAD      ACCESS:   10779045  HIT:   10687501  MISS:      91544
L1I RFO       ACCESS:          0  HIT:          0  MISS:          0
L1I PREFETCH  ACCESS:    8403182  HIT:    6836193  MISS:    1566989
L1I WRITEBACK ACCESS:          0  HIT:          0  MISS:          0
L1I PREFETCH  REQUESTED:   10524522  ISSUED:    8890086  USEFUL:    1075974  USELESS:     491017
L1I AVERAGE MISS LATENCY: 29.9507 cycles
L2C TOTAL     ACCESS:    8006318  HIT:    6953599  MISS:    1052719
L2C LOAD      ACCESS:    2317471  HIT:    2091736  MISS:     225735
L2C RFO       ACCESS:     103461  HIT:      63796  MISS:      39665
L2C PREFETCH  ACCESS:    5328549  HIT:    4542870  MISS:     785679
L2C WRITEBACK ACCESS:     256837  HIT:     255197  MISS:       1640
L2C PREFETCH  REQUESTED:    6803735  ISSUED:    6800875  USEFUL:      23099  USELESS:     761526
L2C AVERAGE MISS LATENCY: 46.6609 cycles
LLC TOTAL     ACCESS:    2357696  HIT:    2224330  MISS:     133366
LLC LOAD      ACCESS:     225495  HIT:     205471  MISS:      20024
LLC RFO       ACCESS:      39661  HIT:      30678  MISS:       8983
LLC PREFETCH  ACCESS:    1956630  HIT:    1852493  MISS:     104137
LLC WRITEBACK ACCESS:     135910  HIT:     135688  MISS:        222
LLC PREFETCH  REQUESTED:          0  ISSUED:          0  USEFUL:      11821  USELESS:      90645
LLC AVERAGE MISS LATENCY: 175.004 cycles
Major fault: 0 Minor fault: 6364
CPU 0 L1D next line prefetcher final stats

DRAM Statistics
 CHANNEL 0
 RQ ROW_BUFFER_HIT:      25627  ROW_BUFFER_MISS:     107498
 DBUS_CONGESTED:      56847
 WQ ROW_BUFFER_HIT:       8782  ROW_BUFFER_MISS:      37818  FULL:          0

 AVG_CONGESTED_CYCLE: 5

CPU 0 Branch Prediction Accuracy: 99.4713% MPKI: 1.11484 Average ROB Occupancy at Mispredict: 118.575

Branch types
NOT_BRANCH: 39456620 78.9132%
BRANCH_DIRECT_JUMP: 445350 0.8907%
BRANCH_INDIRECT: 131149 0.262298%
BRANCH_CONDITIONAL: 8130197 16.2604%
BRANCH_DIRECT_CALL: 732485 1.46497%
BRANCH_INDIRECT_CALL: 172369 0.344738%
BRANCH_RETURN: 931558 1.86312%
BRANCH_OTHER: 0 0%

