Initialize SIGNATURE TABLE
ST_SET: 1
ST_WAY: 256
ST_TAG_BIT: 16
ST_TAG_MASK: ffff

Initialize PATTERN TABLE
PT_SET: 512
PT_WAY: 4
SIG_DELTA_BIT: 7
C_SIG_BIT: 4
C_DELTA_BIT: 4

Initialize PREFETCH FILTER
FILTER_SET: 1024

*** ChampSim Multicore Out-of-Order Simulator ***

Warmup Instructions: 50000000
Simulation Instructions: 50000000
Number of CPUs: 1
LLC sets: 2048
LLC ways: 16
Off-chip DRAM Size: 4096 MB Channels: 1 Width: 64-bit Data Rate: 3200 MT/s

CPU 0 runs /home/ChampSim-master//dpc3_traces/server_024.champsimtrace.xz
L1I D-JOLT instruction prefetcher has been constructed!
CPU 0 L1D next line prefetcher
Heartbeat CPU 0 instructions: 10000000 cycles: 3497363 heartbeat IPC: 2.8593 cumulative IPC: 2.8593 (Simulation time: 0 hr 2 min 54 sec) 
Heartbeat CPU 0 instructions: 20000002 cycles: 6987485 heartbeat IPC: 2.86523 cumulative IPC: 2.86226 (Simulation time: 0 hr 5 min 42 sec) 
Heartbeat CPU 0 instructions: 30000000 cycles: 10487860 heartbeat IPC: 2.85684 cumulative IPC: 2.86045 (Simulation time: 0 hr 8 min 29 sec) 
Heartbeat CPU 0 instructions: 40000000 cycles: 13985591 heartbeat IPC: 2.859 cumulative IPC: 2.86009 (Simulation time: 0 hr 11 min 16 sec) 
Heartbeat CPU 0 instructions: 50000001 cycles: 17473147 heartbeat IPC: 2.86734 cumulative IPC: 2.86153 (Simulation time: 0 hr 14 min 2 sec) 

Warmup complete CPU 0 instructions: 50000001 cycles: 17473147 (Simulation time: 0 hr 14 min 2 sec) 

Heartbeat CPU 0 instructions: 60000002 cycles: 24209815 heartbeat IPC: 1.48441 cumulative IPC: 1.48441 (Simulation time: 0 hr 16 min 49 sec) 
Heartbeat CPU 0 instructions: 70000000 cycles: 30983124 heartbeat IPC: 1.47638 cumulative IPC: 1.48039 (Simulation time: 0 hr 19 min 28 sec) 
*** Reached end of trace for Core: 0 Repeating trace: /home/ChampSim-master//dpc3_traces/server_024.champsimtrace.xz
Heartbeat CPU 0 instructions: 80000003 cycles: 37738269 heartbeat IPC: 1.48035 cumulative IPC: 1.48038 (Simulation time: 0 hr 21 min 57 sec) 
Heartbeat CPU 0 instructions: 90000003 cycles: 44549695 heartbeat IPC: 1.46812 cumulative IPC: 1.47729 (Simulation time: 0 hr 24 min 31 sec) 
Heartbeat CPU 0 instructions: 100000002 cycles: 51317850 heartbeat IPC: 1.47751 cumulative IPC: 1.47734 (Simulation time: 0 hr 26 min 11 sec) 
Finished CPU 0 instructions: 50000001 cycles: 33844703 cumulative IPC: 1.47734 (Simulation time: 0 hr 26 min 11 sec) 

ChampSim completed all CPUs

Region of Interest Statistics

CPU 0 cumulative IPC: 1.47734 instructions: 50000001 cycles: 33844703
L1D TOTAL     ACCESS:   19651626  HIT:   18134250  MISS:    1517376
L1D LOAD      ACCESS:    6917178  HIT:    6236561  MISS:     680617
L1D RFO       ACCESS:    6148788  HIT:    5875098  MISS:     273690
L1D PREFETCH  ACCESS:    6585660  HIT:    6022591  MISS:     563069
L1D WRITEBACK ACCESS:          0  HIT:          0  MISS:          0
L1D PREFETCH  REQUESTED:    6971923  ISSUED:    6849489  USEFUL:     135655  USELESS:     427419
L1D AVERAGE MISS LATENCY: 25.6482 cycles
L1I TOTAL     ACCESS:   15126893  HIT:   12236867  MISS:    2890026
L1I LOAD      ACCESS:    9341204  HIT:    9288330  MISS:      52874
L1I RFO       ACCESS:          0  HIT:          0  MISS:          0
L1I PREFETCH  ACCESS:    5785689  HIT:    2948537  MISS:    2837152
L1I WRITEBACK ACCESS:          0  HIT:          0  MISS:          0
L1I PREFETCH  REQUESTED:    6144151  ISSUED:    6101636  USEFUL:    2481290  USELESS:     355850
L1I AVERAGE MISS LATENCY: 19.3901 cycles
L2C TOTAL     ACCESS:    6124994  HIT:    5341285  MISS:     783709
L2C LOAD      ACCESS:     659535  HIT:     529240  MISS:     130295
L2C RFO       ACCESS:     272140  HIT:     177395  MISS:      94745
L2C PREFETCH  ACCESS:    4673207  HIT:    4119846  MISS:     553361
L2C WRITEBACK ACCESS:     520112  HIT:     514804  MISS:       5308
L2C PREFETCH  REQUESTED:    4180507  ISSUED:    4175606  USEFUL:      10543  USELESS:     542615
L2C AVERAGE MISS LATENCY: 42.0919 cycles
LLC TOTAL     ACCESS:    2092574  HIT:    2039599  MISS:      52975
LLC LOAD      ACCESS:     130019  HIT:     124424  MISS:       5595
LLC RFO       ACCESS:      94694  HIT:      72474  MISS:      22220
LLC PREFETCH  ACCESS:    1718144  HIT:    1693234  MISS:      24910
LLC WRITEBACK ACCESS:     149717  HIT:     149467  MISS:        250
LLC PREFETCH  REQUESTED:          0  ISSUED:          0  USEFUL:       1956  USELESS:      23097
LLC AVERAGE MISS LATENCY: 198.171 cycles
Major fault: 0 Minor fault: 2373
CPU 0 L1D next line prefetcher final stats

DRAM Statistics
 CHANNEL 0
 RQ ROW_BUFFER_HIT:      17714  ROW_BUFFER_MISS:      35005
 DBUS_CONGESTED:      37425
 WQ ROW_BUFFER_HIT:       2639  ROW_BUFFER_MISS:      22851  FULL:          0

 AVG_CONGESTED_CYCLE: 6

CPU 0 Branch Prediction Accuracy: 99.7477% MPKI: 0.46156 Average ROB Occupancy at Mispredict: 175.334

Branch types
NOT_BRANCH: 40853685 81.7074%
BRANCH_DIRECT_JUMP: 566820 1.13364%
BRANCH_INDIRECT: 197171 0.394342%
BRANCH_CONDITIONAL: 6308423 12.6168%
BRANCH_DIRECT_CALL: 876400 1.7528%
BRANCH_INDIRECT_CALL: 160491 0.320982%
BRANCH_RETURN: 1036885 2.07377%
BRANCH_OTHER: 0 0%

