Initialize SIGNATURE TABLE
ST_SET: 1
ST_WAY: 256
ST_TAG_BIT: 16
ST_TAG_MASK: ffff

Initialize PATTERN TABLE
PT_SET: 512
PT_WAY: 4
SIG_DELTA_BIT: 7
C_SIG_BIT: 4
C_DELTA_BIT: 4

Initialize PREFETCH FILTER
FILTER_SET: 1024

*** ChampSim Multicore Out-of-Order Simulator ***

Warmup Instructions: 50000000
Simulation Instructions: 50000000
Number of CPUs: 1
LLC sets: 2048
LLC ways: 16
Off-chip DRAM Size: 4096 MB Channels: 1 Width: 64-bit Data Rate: 3200 MT/s

CPU 0 runs /home/ChampSim-master//dpc3_traces/server_030.champsimtrace.xz
L1I D-JOLT instruction prefetcher has been constructed!
CPU 0 L1D next line prefetcher
Heartbeat CPU 0 instructions: 10000003 cycles: 3510294 heartbeat IPC: 2.84877 cumulative IPC: 2.84877 (Simulation time: 0 hr 3 min 21 sec) 
Heartbeat CPU 0 instructions: 20000003 cycles: 7021366 heartbeat IPC: 2.84813 cumulative IPC: 2.84845 (Simulation time: 0 hr 6 min 18 sec) 
Heartbeat CPU 0 instructions: 30000000 cycles: 10531653 heartbeat IPC: 2.84877 cumulative IPC: 2.84856 (Simulation time: 0 hr 9 min 1 sec) 
Heartbeat CPU 0 instructions: 40000002 cycles: 14042206 heartbeat IPC: 2.84855 cumulative IPC: 2.84856 (Simulation time: 0 hr 11 min 44 sec) 
Heartbeat CPU 0 instructions: 50000002 cycles: 17555808 heartbeat IPC: 2.84608 cumulative IPC: 2.84806 (Simulation time: 0 hr 14 min 34 sec) 

Warmup complete CPU 0 instructions: 50000002 cycles: 17555808 (Simulation time: 0 hr 14 min 34 sec) 

Heartbeat CPU 0 instructions: 60000000 cycles: 24633973 heartbeat IPC: 1.4128 cumulative IPC: 1.4128 (Simulation time: 0 hr 17 min 11 sec) 
Heartbeat CPU 0 instructions: 70000000 cycles: 31710537 heartbeat IPC: 1.41312 cumulative IPC: 1.41296 (Simulation time: 0 hr 19 min 44 sec) 
Heartbeat CPU 0 instructions: 80000001 cycles: 38784196 heartbeat IPC: 1.4137 cumulative IPC: 1.4132 (Simulation time: 0 hr 22 min 15 sec) 
*** Reached end of trace for Core: 0 Repeating trace: /home/ChampSim-master//dpc3_traces/server_030.champsimtrace.xz
Heartbeat CPU 0 instructions: 90000002 cycles: 45849768 heartbeat IPC: 1.41531 cumulative IPC: 1.41373 (Simulation time: 0 hr 24 min 35 sec) 
Heartbeat CPU 0 instructions: 100000002 cycles: 52912471 heartbeat IPC: 1.41589 cumulative IPC: 1.41416 (Simulation time: 0 hr 26 min 3 sec) 
Finished CPU 0 instructions: 50000000 cycles: 35356663 cumulative IPC: 1.41416 (Simulation time: 0 hr 26 min 3 sec) 

ChampSim completed all CPUs

Region of Interest Statistics

CPU 0 cumulative IPC: 1.41416 instructions: 50000000 cycles: 35356663
L1D TOTAL     ACCESS:   19134893  HIT:   17059061  MISS:    2075832
L1D LOAD      ACCESS:    6757965  HIT:    5703340  MISS:    1054625
L1D RFO       ACCESS:    6168211  HIT:    5881577  MISS:     286634
L1D PREFETCH  ACCESS:    6208717  HIT:    5474144  MISS:     734573
L1D WRITEBACK ACCESS:          0  HIT:          0  MISS:          0
L1D PREFETCH  REQUESTED:    6811946  ISSUED:    6677490  USEFUL:     179210  USELESS:     555456
L1D AVERAGE MISS LATENCY: 19.4476 cycles
L1I TOTAL     ACCESS:   17567079  HIT:   13938834  MISS:    3628245
L1I LOAD      ACCESS:    9830468  HIT:    9783429  MISS:      47039
L1I RFO       ACCESS:          0  HIT:          0  MISS:          0
L1I PREFETCH  ACCESS:    7736611  HIT:    4155405  MISS:    3581206
L1I WRITEBACK ACCESS:          0  HIT:          0  MISS:          0
L1I PREFETCH  REQUESTED:    8297161  ISSUED:    8142877  USEFUL:    2964238  USELESS:     616962
L1I AVERAGE MISS LATENCY: 19.6125 cycles
L2C TOTAL     ACCESS:    8068622  HIT:    7145096  MISS:     923526
L2C LOAD      ACCESS:     933509  HIT:     781458  MISS:     152051
L2C RFO       ACCESS:     283598  HIT:     217504  MISS:      66094
L2C PREFETCH  ACCESS:    6235993  HIT:    5535172  MISS:     700821
L2C WRITEBACK ACCESS:     615522  HIT:     610962  MISS:       4560
L2C PREFETCH  REQUESTED:    5837392  ISSUED:    5830499  USEFUL:      10557  USELESS:     690139
L2C AVERAGE MISS LATENCY: 33.8126 cycles
LLC TOTAL     ACCESS:    2452967  HIT:    2433163  MISS:      19804
LLC LOAD      ACCESS:     151865  HIT:     149062  MISS:       2803
LLC RFO       ACCESS:      66076  HIT:      64276  MISS:       1800
LLC PREFETCH  ACCESS:    2109232  HIT:    2094137  MISS:      15095
LLC WRITEBACK ACCESS:     125794  HIT:     125688  MISS:        106
LLC PREFETCH  REQUESTED:          0  ISSUED:          0  USEFUL:        823  USELESS:      13909
LLC AVERAGE MISS LATENCY: 146.021 cycles
Major fault: 0 Minor fault: 2042
CPU 0 L1D next line prefetcher final stats

DRAM Statistics
 CHANNEL 0
 RQ ROW_BUFFER_HIT:       6283  ROW_BUFFER_MISS:      13415
 DBUS_CONGESTED:       6153
 WQ ROW_BUFFER_HIT:        153  ROW_BUFFER_MISS:       2185  FULL:          0

 AVG_CONGESTED_CYCLE: 5

CPU 0 Branch Prediction Accuracy: 99.8445% MPKI: 0.29148 Average ROB Occupancy at Mispredict: 166.647

Branch types
NOT_BRANCH: 40628081 81.2562%
BRANCH_DIRECT_JUMP: 490941 0.981882%
BRANCH_INDIRECT: 175854 0.351708%
BRANCH_CONDITIONAL: 6321415 12.6428%
BRANCH_DIRECT_CALL: 1002072 2.00414%
BRANCH_INDIRECT_CALL: 189783 0.379566%
BRANCH_RETURN: 1191851 2.3837%
BRANCH_OTHER: 0 0%

