Initialize SIGNATURE TABLE
ST_SET: 1
ST_WAY: 256
ST_TAG_BIT: 16
ST_TAG_MASK: ffff

Initialize PATTERN TABLE
PT_SET: 512
PT_WAY: 4
SIG_DELTA_BIT: 7
C_SIG_BIT: 4
C_DELTA_BIT: 4

Initialize PREFETCH FILTER
FILTER_SET: 1024

*** ChampSim Multicore Out-of-Order Simulator ***

Warmup Instructions: 50000000
Simulation Instructions: 50000000
Number of CPUs: 1
LLC sets: 2048
LLC ways: 16
Off-chip DRAM Size: 4096 MB Channels: 1 Width: 64-bit Data Rate: 3200 MT/s

CPU 0 runs /home/ChampSim-master//dpc3_traces/server_016.champsimtrace.xz
L1I D-JOLT instruction prefetcher has been constructed!
CPU 0 L1D next line prefetcher
Heartbeat CPU 0 instructions: 10000000 cycles: 3496233 heartbeat IPC: 2.86022 cumulative IPC: 2.86022 (Simulation time: 0 hr 2 min 59 sec) 
Heartbeat CPU 0 instructions: 20000000 cycles: 6993199 heartbeat IPC: 2.85962 cumulative IPC: 2.85992 (Simulation time: 0 hr 6 min 14 sec) 
Heartbeat CPU 0 instructions: 30000001 cycles: 10485199 heartbeat IPC: 2.86369 cumulative IPC: 2.86118 (Simulation time: 0 hr 9 min 39 sec) 
Heartbeat CPU 0 instructions: 40000000 cycles: 13783159 heartbeat IPC: 3.03218 cumulative IPC: 2.90209 (Simulation time: 0 hr 11 min 16 sec) 
Heartbeat CPU 0 instructions: 50000002 cycles: 17018624 heartbeat IPC: 3.09075 cumulative IPC: 2.93796 (Simulation time: 0 hr 12 min 18 sec) 

Warmup complete CPU 0 instructions: 50000002 cycles: 17018624 (Simulation time: 0 hr 12 min 18 sec) 

Heartbeat CPU 0 instructions: 60000000 cycles: 24980215 heartbeat IPC: 1.25603 cumulative IPC: 1.25603 (Simulation time: 0 hr 13 min 33 sec) 
Heartbeat CPU 0 instructions: 70000001 cycles: 31736744 heartbeat IPC: 1.48005 cumulative IPC: 1.35887 (Simulation time: 0 hr 16 min 22 sec) 
Heartbeat CPU 0 instructions: 80000001 cycles: 38589061 heartbeat IPC: 1.45936 cumulative IPC: 1.39079 (Simulation time: 0 hr 19 min 2 sec) 
Heartbeat CPU 0 instructions: 90000000 cycles: 45226952 heartbeat IPC: 1.5065 cumulative IPC: 1.41802 (Simulation time: 0 hr 21 min 32 sec) 
Heartbeat CPU 0 instructions: 100000000 cycles: 51998976 heartbeat IPC: 1.47666 cumulative IPC: 1.42937 (Simulation time: 0 hr 23 min 55 sec) 
Finished CPU 0 instructions: 50000002 cycles: 34980353 cumulative IPC: 1.42937 (Simulation time: 0 hr 23 min 55 sec) 

ChampSim completed all CPUs

Region of Interest Statistics

CPU 0 cumulative IPC: 1.42937 instructions: 50000002 cycles: 34980353
L1D TOTAL     ACCESS:   17904952  HIT:   16637786  MISS:    1267166
L1D LOAD      ACCESS:    6496299  HIT:    5922650  MISS:     573649
L1D RFO       ACCESS:    5192494  HIT:    4970573  MISS:     221921
L1D PREFETCH  ACCESS:    6216159  HIT:    5744563  MISS:     471596
L1D WRITEBACK ACCESS:          0  HIT:          0  MISS:          0
L1D PREFETCH  REQUESTED:    6539387  ISSUED:    6434070  USEFUL:     112601  USELESS:     359013
L1D AVERAGE MISS LATENCY: 24.1307 cycles
L1I TOTAL     ACCESS:   14928371  HIT:   12451309  MISS:    2477062
L1I LOAD      ACCESS:    9870582  HIT:    9834543  MISS:      36039
L1I RFO       ACCESS:          0  HIT:          0  MISS:          0
L1I PREFETCH  ACCESS:    5057789  HIT:    2616766  MISS:    2441023
L1I WRITEBACK ACCESS:          0  HIT:          0  MISS:          0
L1I PREFETCH  REQUESTED:    5405103  ISSUED:    5316919  USEFUL:    2081269  USELESS:     359761
L1I AVERAGE MISS LATENCY: 19.5059 cycles
L2C TOTAL     ACCESS:    5202075  HIT:    4544736  MISS:     657339
L2C LOAD      ACCESS:     553359  HIT:     441735  MISS:     111624
L2C RFO       ACCESS:     220459  HIT:     152820  MISS:      67639
L2C PREFETCH  ACCESS:    4000061  HIT:    3525208  MISS:     474853
L2C WRITEBACK ACCESS:     428196  HIT:     424973  MISS:       3223
L2C PREFETCH  REQUESTED:    3557410  ISSUED:    3553189  USEFUL:      11338  USELESS:     462565
L2C AVERAGE MISS LATENCY: 39.3328 cycles
LLC TOTAL     ACCESS:    1740482  HIT:    1702831  MISS:      37651
LLC LOAD      ACCESS:     111421  HIT:     107047  MISS:       4374
LLC RFO       ACCESS:      67624  HIT:      54091  MISS:      13533
LLC PREFETCH  ACCESS:    1446388  HIT:    1426810  MISS:      19578
LLC WRITEBACK ACCESS:     115049  HIT:     114883  MISS:        166
LLC PREFETCH  REQUESTED:          0  ISSUED:          0  USEFUL:       1773  USELESS:      17843
LLC AVERAGE MISS LATENCY: 177.072 cycles
Major fault: 0 Minor fault: 2373
CPU 0 L1D next line prefetcher final stats

DRAM Statistics
 CHANNEL 0
 RQ ROW_BUFFER_HIT:      11691  ROW_BUFFER_MISS:      25794
 DBUS_CONGESTED:      23150
 WQ ROW_BUFFER_HIT:       1481  ROW_BUFFER_MISS:      14482  FULL:          0

 AVG_CONGESTED_CYCLE: 6

CPU 0 Branch Prediction Accuracy: 99.7225% MPKI: 0.50376 Average ROB Occupancy at Mispredict: 133.906

Branch types
NOT_BRANCH: 40924076 81.8481%
BRANCH_DIRECT_JUMP: 487046 0.974092%
BRANCH_INDIRECT: 169159 0.338318%
BRANCH_CONDITIONAL: 6640844 13.2817%
BRANCH_DIRECT_CALL: 755592 1.51118%
BRANCH_INDIRECT_CALL: 133962 0.267924%
BRANCH_RETURN: 889572 1.77914%
BRANCH_OTHER: 0 0%

