Initialize SIGNATURE TABLE
ST_SET: 1
ST_WAY: 256
ST_TAG_BIT: 16
ST_TAG_MASK: ffff

Initialize PATTERN TABLE
PT_SET: 512
PT_WAY: 4
SIG_DELTA_BIT: 7
C_SIG_BIT: 4
C_DELTA_BIT: 4

Initialize PREFETCH FILTER
FILTER_SET: 1024

*** ChampSim Multicore Out-of-Order Simulator ***

Warmup Instructions: 50000000
Simulation Instructions: 50000000
Number of CPUs: 1
LLC sets: 2048
LLC ways: 16
Off-chip DRAM Size: 4096 MB Channels: 1 Width: 64-bit Data Rate: 3200 MT/s

CPU 0 runs /home/ChampSim-master//dpc3_traces/server_009.champsimtrace.xz
L1I D-JOLT instruction prefetcher has been constructed!
CPU 0 L1D next line prefetcher
Heartbeat CPU 0 instructions: 10000003 cycles: 3195870 heartbeat IPC: 3.12904 cumulative IPC: 3.12904 (Simulation time: 0 hr 2 min 53 sec) 
Heartbeat CPU 0 instructions: 20000001 cycles: 6385113 heartbeat IPC: 3.13554 cumulative IPC: 3.13229 (Simulation time: 0 hr 5 min 34 sec) 
Heartbeat CPU 0 instructions: 30000001 cycles: 9589690 heartbeat IPC: 3.12054 cumulative IPC: 3.12836 (Simulation time: 0 hr 8 min 13 sec) 
Heartbeat CPU 0 instructions: 40000003 cycles: 12790495 heartbeat IPC: 3.12421 cumulative IPC: 3.12732 (Simulation time: 0 hr 11 min 12 sec) 
Heartbeat CPU 0 instructions: 50000000 cycles: 16047811 heartbeat IPC: 3.07001 cumulative IPC: 3.11569 (Simulation time: 0 hr 14 min 3 sec) 

Warmup complete CPU 0 instructions: 50000004 cycles: 16047812 (Simulation time: 0 hr 14 min 3 sec) 

Heartbeat CPU 0 instructions: 60000002 cycles: 31732671 heartbeat IPC: 0.637558 cumulative IPC: 0.637557 (Simulation time: 0 hr 17 min 16 sec) 
Heartbeat CPU 0 instructions: 70000003 cycles: 52828561 heartbeat IPC: 0.474026 cumulative IPC: 0.543763 (Simulation time: 0 hr 20 min 55 sec) 
Heartbeat CPU 0 instructions: 80000000 cycles: 59984683 heartbeat IPC: 1.3974 cumulative IPC: 0.682798 (Simulation time: 0 hr 23 min 14 sec) 
Heartbeat CPU 0 instructions: 90000001 cycles: 67293193 heartbeat IPC: 1.36827 cumulative IPC: 0.780558 (Simulation time: 0 hr 25 min 16 sec) 
Heartbeat CPU 0 instructions: 100000003 cycles: 74486672 heartbeat IPC: 1.39015 cumulative IPC: 0.855595 (Simulation time: 0 hr 26 min 29 sec) 
Finished CPU 0 instructions: 50000003 cycles: 58438861 cumulative IPC: 0.855595 (Simulation time: 0 hr 26 min 29 sec) 

ChampSim completed all CPUs

Region of Interest Statistics

CPU 0 cumulative IPC: 0.855595 instructions: 50000003 cycles: 58438861
L1D TOTAL     ACCESS:   21639779  HIT:   17060256  MISS:    4579523
L1D LOAD      ACCESS:    8635812  HIT:    6355565  MISS:    2280247
L1D RFO       ACCESS:    4581225  HIT:    4476862  MISS:     104363
L1D PREFETCH  ACCESS:    8422742  HIT:    6227829  MISS:    2194913
L1D WRITEBACK ACCESS:          0  HIT:          0  MISS:          0
L1D PREFETCH  REQUESTED:    8668298  ISSUED:    8571315  USEFUL:     106424  USELESS:    2088488
L1D AVERAGE MISS LATENCY: 20.3767 cycles
L1I TOTAL     ACCESS:   17297849  HIT:   15726715  MISS:    1571134
L1I LOAD      ACCESS:   10779581  HIT:   10688116  MISS:      91465
L1I RFO       ACCESS:          0  HIT:          0  MISS:          0
L1I PREFETCH  ACCESS:    6518268  HIT:    5038599  MISS:    1479669
L1I WRITEBACK ACCESS:          0  HIT:          0  MISS:          0
L1I PREFETCH  REQUESTED:    7203055  ISSUED:    6832424  USEFUL:    1061942  USELESS:     417703
L1I AVERAGE MISS LATENCY: 30.3951 cycles
L2C TOTAL     ACCESS:    7902268  HIT:    6850651  MISS:    1051617
L2C LOAD      ACCESS:    2301026  HIT:    2077187  MISS:     223839
L2C RFO       ACCESS:     103475  HIT:      63508  MISS:      39967
L2C PREFETCH  ACCESS:    5240917  HIT:    4454629  MISS:     786288
L2C WRITEBACK ACCESS:     256850  HIT:     255327  MISS:       1523
L2C PREFETCH  REQUESTED:    6467861  ISSUED:    6465370  USEFUL:      23072  USELESS:     762031
L2C AVERAGE MISS LATENCY: 46.8038 cycles
LLC TOTAL     ACCESS:    2334022  HIT:    2197680  MISS:     136342
LLC LOAD      ACCESS:     223627  HIT:     203273  MISS:      20354
LLC RFO       ACCESS:      39963  HIT:      31059  MISS:       8904
LLC PREFETCH  ACCESS:    1934045  HIT:    1827165  MISS:     106880
LLC WRITEBACK ACCESS:     136387  HIT:     136183  MISS:        204
LLC PREFETCH  REQUESTED:          0  ISSUED:          0  USEFUL:      12049  USELESS:      93399
LLC AVERAGE MISS LATENCY: 174.434 cycles
Major fault: 0 Minor fault: 6364
CPU 0 L1D next line prefetcher final stats

DRAM Statistics
 CHANNEL 0
 RQ ROW_BUFFER_HIT:      26537  ROW_BUFFER_MISS:     109580
 DBUS_CONGESTED:      57995
 WQ ROW_BUFFER_HIT:       9063  ROW_BUFFER_MISS:      37357  FULL:          0

 AVG_CONGESTED_CYCLE: 5

CPU 0 Branch Prediction Accuracy: 99.4713% MPKI: 1.11484 Average ROB Occupancy at Mispredict: 118.47

Branch types
NOT_BRANCH: 39456615 78.9132%
BRANCH_DIRECT_JUMP: 445350 0.8907%
BRANCH_INDIRECT: 131149 0.262298%
BRANCH_CONDITIONAL: 8130196 16.2604%
BRANCH_DIRECT_CALL: 732485 1.46497%
BRANCH_INDIRECT_CALL: 172369 0.344738%
BRANCH_RETURN: 931558 1.86312%
BRANCH_OTHER: 0 0%

