Initialize SIGNATURE TABLE
ST_SET: 1
ST_WAY: 256
ST_TAG_BIT: 16
ST_TAG_MASK: ffff

Initialize PATTERN TABLE
PT_SET: 512
PT_WAY: 4
SIG_DELTA_BIT: 7
C_SIG_BIT: 4
C_DELTA_BIT: 4

Initialize PREFETCH FILTER
FILTER_SET: 1024

*** ChampSim Multicore Out-of-Order Simulator ***

Warmup Instructions: 50000000
Simulation Instructions: 50000000
Number of CPUs: 1
LLC sets: 2048
LLC ways: 16
Off-chip DRAM Size: 4096 MB Channels: 1 Width: 64-bit Data Rate: 3200 MT/s

CPU 0 runs /home/ChampSim-master//dpc3_traces/server_033.champsimtrace.xz
CPU 0 EPI prefetcher
CPU 0 L1D next line prefetcher
Heartbeat CPU 0 instructions: 10000001 cycles: 3345026 heartbeat IPC: 2.98951 cumulative IPC: 2.98951 (Simulation time: 0 hr 3 min 17 sec) 
Heartbeat CPU 0 instructions: 20000002 cycles: 6688240 heartbeat IPC: 2.99113 cumulative IPC: 2.99032 (Simulation time: 0 hr 6 min 46 sec) 
Heartbeat CPU 0 instructions: 30000001 cycles: 10021511 heartbeat IPC: 3.00006 cumulative IPC: 2.99356 (Simulation time: 0 hr 10 min 1 sec) 
Heartbeat CPU 0 instructions: 40000000 cycles: 13363584 heartbeat IPC: 2.99215 cumulative IPC: 2.99321 (Simulation time: 0 hr 13 min 7 sec) 
Heartbeat CPU 0 instructions: 50000000 cycles: 16704630 heartbeat IPC: 2.99307 cumulative IPC: 2.99318 (Simulation time: 0 hr 16 min 8 sec) 

Warmup complete CPU 0 instructions: 50000004 cycles: 16704631 (Simulation time: 0 hr 16 min 8 sec) 

Heartbeat CPU 0 instructions: 60000000 cycles: 24016468 heartbeat IPC: 1.36765 cumulative IPC: 1.36764 (Simulation time: 0 hr 18 min 56 sec) 
Heartbeat CPU 0 instructions: 70000000 cycles: 31278567 heartbeat IPC: 1.37701 cumulative IPC: 1.37231 (Simulation time: 0 hr 21 min 40 sec) 
Heartbeat CPU 0 instructions: 80000000 cycles: 39324099 heartbeat IPC: 1.24293 cumulative IPC: 1.32629 (Simulation time: 0 hr 24 min 16 sec) 
Heartbeat CPU 0 instructions: 90000003 cycles: 46692722 heartbeat IPC: 1.35711 cumulative IPC: 1.33386 (Simulation time: 0 hr 26 min 10 sec) 
Heartbeat CPU 0 instructions: 100000000 cycles: 54026427 heartbeat IPC: 1.36357 cumulative IPC: 1.3397 (Simulation time: 0 hr 27 min 17 sec) 
Finished CPU 0 instructions: 50000000 cycles: 37321808 cumulative IPC: 1.3397 (Simulation time: 0 hr 27 min 17 sec) 

ChampSim completed all CPUs

Region of Interest Statistics

CPU 0 cumulative IPC: 1.3397 instructions: 50000000 cycles: 37321808
L1D TOTAL     ACCESS:   19215215  HIT:   17732645  MISS:    1482570
L1D LOAD      ACCESS:    6618559  HIT:    5935793  MISS:     682766
L1D RFO       ACCESS:    6182078  HIT:    6032535  MISS:     149543
L1D PREFETCH  ACCESS:    6414578  HIT:    5764317  MISS:     650261
L1D WRITEBACK ACCESS:          0  HIT:          0  MISS:          0
L1D PREFETCH  REQUESTED:    6665600  ISSUED:    6555840  USEFUL:     141781  USELESS:     508484
L1D AVERAGE MISS LATENCY: 23.8795 cycles
L1I TOTAL     ACCESS:   23175250  HIT:   19672474  MISS:    3502776
L1I LOAD      ACCESS:    9502667  HIT:    8555296  MISS:     947371
L1I RFO       ACCESS:          0  HIT:          0  MISS:          0
L1I PREFETCH  ACCESS:   13672583  HIT:   11117178  MISS:    2555405
L1I WRITEBACK ACCESS:          0  HIT:          0  MISS:          0
L1I PREFETCH  REQUESTED:   15065511  ISSUED:   15065511  USEFUL:    2376183  USELESS:     179189
L1I AVERAGE MISS LATENCY: 15.0017 cycles
L2C TOTAL     ACCESS:    7562214  HIT:    7268102  MISS:     294112
L2C LOAD      ACCESS:    1570680  HIT:    1439774  MISS:     130906
L2C RFO       ACCESS:     148167  HIT:     128315  MISS:      19852
L2C PREFETCH  ACCESS:    5476614  HIT:    5334409  MISS:     142205
L2C WRITEBACK ACCESS:     366753  HIT:     365604  MISS:       1149
L2C PREFETCH  REQUESTED:    5468277  ISSUED:    5452806  USEFUL:       9389  USELESS:     132581
L2C AVERAGE MISS LATENCY: 51.3235 cycles
LLC TOTAL     ACCESS:    2082056  HIT:    2013247  MISS:      68809
LLC LOAD      ACCESS:     130861  HIT:     115729  MISS:      15132
LLC RFO       ACCESS:      19852  HIT:      16229  MISS:       3623
LLC PREFETCH  ACCESS:    1828152  HIT:    1778405  MISS:      49747
LLC WRITEBACK ACCESS:     103191  HIT:     102884  MISS:        307
LLC PREFETCH  REQUESTED:          0  ISSUED:          0  USEFUL:       6933  USELESS:      41712
LLC AVERAGE MISS LATENCY: 172.781 cycles
Major fault: 0 Minor fault: 2482
CPU 0 L1I EPI prefetcher final stats
CPU 0 L1D next line prefetcher final stats

DRAM Statistics
 CHANNEL 0
 RQ ROW_BUFFER_HIT:       9955  ROW_BUFFER_MISS:      58541
 DBUS_CONGESTED:      26011
 WQ ROW_BUFFER_HIT:       3861  ROW_BUFFER_MISS:      17852  FULL:          0

 AVG_CONGESTED_CYCLE: 5

CPU 0 Branch Prediction Accuracy: 99.9029% MPKI: 0.19006 Average ROB Occupancy at Mispredict: 163.353

Branch types
NOT_BRANCH: 40217077 80.4342%
BRANCH_DIRECT_JUMP: 774599 1.5492%
BRANCH_INDIRECT: 108806 0.217612%
BRANCH_CONDITIONAL: 6379326 12.7587%
BRANCH_DIRECT_CALL: 1048808 2.09762%
BRANCH_INDIRECT_CALL: 211109 0.422218%
BRANCH_RETURN: 1259924 2.51985%
BRANCH_OTHER: 0 0%

