Initialize SIGNATURE TABLE
ST_SET: 1
ST_WAY: 256
ST_TAG_BIT: 16
ST_TAG_MASK: ffff

Initialize PATTERN TABLE
PT_SET: 512
PT_WAY: 4
SIG_DELTA_BIT: 7
C_SIG_BIT: 4
C_DELTA_BIT: 4

Initialize PREFETCH FILTER
FILTER_SET: 1024

*** ChampSim Multicore Out-of-Order Simulator ***

Warmup Instructions: 50000000
Simulation Instructions: 50000000
Number of CPUs: 1
LLC sets: 2048
LLC ways: 16
Off-chip DRAM Size: 4096 MB Channels: 1 Width: 64-bit Data Rate: 3200 MT/s

CPU 0 runs /home/ChampSim-master//dpc3_traces/server_024.champsimtrace.xz
L1I D-JOLT instruction prefetcher has been constructed!
CPU 0 L1D next line prefetcher
Heartbeat CPU 0 instructions: 10000000 cycles: 3498587 heartbeat IPC: 2.8583 cumulative IPC: 2.8583 (Simulation time: 0 hr 3 min 7 sec) 
Heartbeat CPU 0 instructions: 20000002 cycles: 6989921 heartbeat IPC: 2.86424 cumulative IPC: 2.86126 (Simulation time: 0 hr 6 min 16 sec) 
Heartbeat CPU 0 instructions: 30000000 cycles: 10491405 heartbeat IPC: 2.85593 cumulative IPC: 2.85948 (Simulation time: 0 hr 9 min 7 sec) 
Heartbeat CPU 0 instructions: 40000000 cycles: 13990155 heartbeat IPC: 2.85816 cumulative IPC: 2.85915 (Simulation time: 0 hr 11 min 55 sec) 
Heartbeat CPU 0 instructions: 50000001 cycles: 17478951 heartbeat IPC: 2.86632 cumulative IPC: 2.86058 (Simulation time: 0 hr 14 min 55 sec) 

Warmup complete CPU 0 instructions: 50000001 cycles: 17478951 (Simulation time: 0 hr 14 min 55 sec) 

Heartbeat CPU 0 instructions: 60000002 cycles: 24215544 heartbeat IPC: 1.48443 cumulative IPC: 1.48443 (Simulation time: 0 hr 17 min 43 sec) 
Heartbeat CPU 0 instructions: 70000000 cycles: 30992390 heartbeat IPC: 1.47561 cumulative IPC: 1.48001 (Simulation time: 0 hr 20 min 22 sec) 
*** Reached end of trace for Core: 0 Repeating trace: /home/ChampSim-master//dpc3_traces/server_024.champsimtrace.xz
Heartbeat CPU 0 instructions: 80000003 cycles: 37747924 heartbeat IPC: 1.48027 cumulative IPC: 1.48009 (Simulation time: 0 hr 23 min 3 sec) 
Heartbeat CPU 0 instructions: 90000003 cycles: 44568364 heartbeat IPC: 1.46618 cumulative IPC: 1.47659 (Simulation time: 0 hr 25 min 26 sec) 
Heartbeat CPU 0 instructions: 100000002 cycles: 51344506 heartbeat IPC: 1.47577 cumulative IPC: 1.47643 (Simulation time: 0 hr 26 min 50 sec) 
Finished CPU 0 instructions: 50000001 cycles: 33865555 cumulative IPC: 1.47643 (Simulation time: 0 hr 26 min 50 sec) 

ChampSim completed all CPUs

Region of Interest Statistics

CPU 0 cumulative IPC: 1.47643 instructions: 50000001 cycles: 33865555
L1D TOTAL     ACCESS:   19651770  HIT:   18134525  MISS:    1517245
L1D LOAD      ACCESS:    6914666  HIT:    6233863  MISS:     680803
L1D RFO       ACCESS:    6151694  HIT:    5877990  MISS:     273704
L1D PREFETCH  ACCESS:    6585410  HIT:    6022672  MISS:     562738
L1D WRITEBACK ACCESS:          0  HIT:          0  MISS:          0
L1D PREFETCH  REQUESTED:    6969609  ISSUED:    6846833  USEFUL:     135356  USELESS:     427387
L1D AVERAGE MISS LATENCY: 25.5986 cycles
L1I TOTAL     ACCESS:   15070244  HIT:   12117714  MISS:    2952530
L1I LOAD      ACCESS:    9344059  HIT:    9299933  MISS:      44126
L1I RFO       ACCESS:          0  HIT:          0  MISS:          0
L1I PREFETCH  ACCESS:    5726185  HIT:    2817781  MISS:    2908404
L1I WRITEBACK ACCESS:          0  HIT:          0  MISS:          0
L1I PREFETCH  REQUESTED:    6080177  ISSUED:    6012941  USEFUL:    2493099  USELESS:     415300
L1I AVERAGE MISS LATENCY: 19.3894 cycles
L2C TOTAL     ACCESS:    6220687  HIT:    5438209  MISS:     782478
L2C LOAD      ACCESS:     656647  HIT:     525529  MISS:     131118
L2C RFO       ACCESS:     272078  HIT:     184103  MISS:      87975
L2C PREFETCH  ACCESS:    4771858  HIT:    4214861  MISS:     556997
L2C WRITEBACK ACCESS:     520104  HIT:     513716  MISS:       6388
L2C PREFETCH  REQUESTED:    4354521  ISSUED:    4349136  USEFUL:      11870  USELESS:     544879
L2C AVERAGE MISS LATENCY: 42.1809 cycles
LLC TOTAL     ACCESS:    2102580  HIT:    2049644  MISS:      52936
LLC LOAD      ACCESS:     130912  HIT:     125368  MISS:       5544
LLC RFO       ACCESS:      87963  HIT:      65756  MISS:      22207
LLC PREFETCH  ACCESS:    1736557  HIT:    1711662  MISS:      24895
LLC WRITEBACK ACCESS:     147148  HIT:     146858  MISS:        290
LLC PREFETCH  REQUESTED:          0  ISSUED:          0  USEFUL:       1964  USELESS:      23332
LLC AVERAGE MISS LATENCY: 197.289 cycles
Major fault: 0 Minor fault: 2371
CPU 0 L1D next line prefetcher final stats

DRAM Statistics
 CHANNEL 0
 RQ ROW_BUFFER_HIT:      17722  ROW_BUFFER_MISS:      34920
 DBUS_CONGESTED:      37512
 WQ ROW_BUFFER_HIT:       2639  ROW_BUFFER_MISS:      22720  FULL:          0

 AVG_CONGESTED_CYCLE: 6

CPU 0 Branch Prediction Accuracy: 99.7477% MPKI: 0.46156 Average ROB Occupancy at Mispredict: 176.215

Branch types
NOT_BRANCH: 40853692 81.7074%
BRANCH_DIRECT_JUMP: 566820 1.13364%
BRANCH_INDIRECT: 197171 0.394342%
BRANCH_CONDITIONAL: 6308426 12.6169%
BRANCH_DIRECT_CALL: 876400 1.7528%
BRANCH_INDIRECT_CALL: 160491 0.320982%
BRANCH_RETURN: 1036885 2.07377%
BRANCH_OTHER: 0 0%

