Initialize SIGNATURE TABLE
ST_SET: 1
ST_WAY: 256
ST_TAG_BIT: 16
ST_TAG_MASK: ffff

Initialize PATTERN TABLE
PT_SET: 512
PT_WAY: 4
SIG_DELTA_BIT: 7
C_SIG_BIT: 4
C_DELTA_BIT: 4

Initialize PREFETCH FILTER
FILTER_SET: 1024

*** ChampSim Multicore Out-of-Order Simulator ***

Warmup Instructions: 50000000
Simulation Instructions: 50000000
Number of CPUs: 1
LLC sets: 2048
LLC ways: 16
Off-chip DRAM Size: 4096 MB Channels: 1 Width: 64-bit Data Rate: 3200 MT/s

CPU 0 runs /home/ChampSim-master//dpc3_traces/server_027.champsimtrace.xz
L1I D-JOLT instruction prefetcher has been constructed!
CPU 0 L1D next line prefetcher
Heartbeat CPU 0 instructions: 10000001 cycles: 3524384 heartbeat IPC: 2.83738 cumulative IPC: 2.83738 (Simulation time: 0 hr 2 min 42 sec) 
Heartbeat CPU 0 instructions: 20000001 cycles: 7053503 heartbeat IPC: 2.83357 cumulative IPC: 2.83547 (Simulation time: 0 hr 5 min 22 sec) 
Heartbeat CPU 0 instructions: 30000002 cycles: 10578513 heartbeat IPC: 2.83687 cumulative IPC: 2.83594 (Simulation time: 0 hr 8 min 11 sec) 
Heartbeat CPU 0 instructions: 40000000 cycles: 14109088 heartbeat IPC: 2.8324 cumulative IPC: 2.83505 (Simulation time: 0 hr 10 min 46 sec) 
Heartbeat CPU 0 instructions: 50000001 cycles: 17633471 heartbeat IPC: 2.83738 cumulative IPC: 2.83552 (Simulation time: 0 hr 13 min 23 sec) 

Warmup complete CPU 0 instructions: 50000001 cycles: 17633471 (Simulation time: 0 hr 13 min 23 sec) 

Heartbeat CPU 0 instructions: 60000002 cycles: 24503415 heartbeat IPC: 1.45562 cumulative IPC: 1.45562 (Simulation time: 0 hr 15 min 55 sec) 
Heartbeat CPU 0 instructions: 70000003 cycles: 31310562 heartbeat IPC: 1.46904 cumulative IPC: 1.4623 (Simulation time: 0 hr 18 min 23 sec) 
Heartbeat CPU 0 instructions: 80000002 cycles: 38126461 heartbeat IPC: 1.46716 cumulative IPC: 1.46392 (Simulation time: 0 hr 20 min 46 sec) 
Heartbeat CPU 0 instructions: 90000001 cycles: 45033083 heartbeat IPC: 1.44789 cumulative IPC: 1.45987 (Simulation time: 0 hr 23 min 2 sec) 
Heartbeat CPU 0 instructions: 100000002 cycles: 51817102 heartbeat IPC: 1.47405 cumulative IPC: 1.46269 (Simulation time: 0 hr 24 min 21 sec) 
Finished CPU 0 instructions: 50000001 cycles: 34183631 cumulative IPC: 1.46269 (Simulation time: 0 hr 24 min 21 sec) 

ChampSim completed all CPUs

Region of Interest Statistics

CPU 0 cumulative IPC: 1.46269 instructions: 50000001 cycles: 34183631
L1D TOTAL     ACCESS:   19872993  HIT:   18271290  MISS:    1601703
L1D LOAD      ACCESS:    6937611  HIT:    6245239  MISS:     692372
L1D RFO       ACCESS:    6286697  HIT:    6001729  MISS:     284968
L1D PREFETCH  ACCESS:    6648685  HIT:    6024322  MISS:     624363
L1D WRITEBACK ACCESS:          0  HIT:          0  MISS:          0
L1D PREFETCH  REQUESTED:    6982443  ISSUED:    6854919  USEFUL:     149394  USELESS:     474980
L1D AVERAGE MISS LATENCY: 23.9782 cycles
L1I TOTAL     ACCESS:   14637004  HIT:   11475808  MISS:    3161196
L1I LOAD      ACCESS:    9482761  HIT:    9445748  MISS:      37013
L1I RFO       ACCESS:          0  HIT:          0  MISS:          0
L1I PREFETCH  ACCESS:    5154243  HIT:    2030060  MISS:    3124183
L1I WRITEBACK ACCESS:          0  HIT:          0  MISS:          0
L1I PREFETCH  REQUESTED:    5377769  ISSUED:    5340109  USEFUL:    2757257  USELESS:     366972
L1I AVERAGE MISS LATENCY: 20.2709 cycles
L2C TOTAL     ACCESS:    6635057  HIT:    5715680  MISS:     919377
L2C LOAD      ACCESS:     686815  HIT:     545624  MISS:     141191
L2C RFO       ACCESS:     283546  HIT:     193446  MISS:      90100
L2C PREFETCH  ACCESS:    5105489  HIT:    4422459  MISS:     683030
L2C WRITEBACK ACCESS:     559207  HIT:     554151  MISS:       5056
L2C PREFETCH  REQUESTED:    4309001  ISSUED:    4303304  USEFUL:      12520  USELESS:     670512
L2C AVERAGE MISS LATENCY: 36.9937 cycles
LLC TOTAL     ACCESS:    2279775  HIT:    2243589  MISS:      36186
LLC LOAD      ACCESS:     140980  HIT:     137241  MISS:       3739
LLC RFO       ACCESS:      90099  HIT:      76152  MISS:      13947
LLC PREFETCH  ACCESS:    1889473  HIT:    1871190  MISS:      18283
LLC WRITEBACK ACCESS:     159223  HIT:     159006  MISS:        217
LLC PREFETCH  REQUESTED:          0  ISSUED:          0  USEFUL:       1453  USELESS:      16944
LLC AVERAGE MISS LATENCY: 179.715 cycles
Major fault: 0 Minor fault: 2484
CPU 0 L1D next line prefetcher final stats

DRAM Statistics
 CHANNEL 0
 RQ ROW_BUFFER_HIT:      11493  ROW_BUFFER_MISS:      24475
 DBUS_CONGESTED:      22405
 WQ ROW_BUFFER_HIT:       1609  ROW_BUFFER_MISS:      14546  FULL:          0

 AVG_CONGESTED_CYCLE: 6

CPU 0 Branch Prediction Accuracy: 99.8082% MPKI: 0.35064 Average ROB Occupancy at Mispredict: 195.633

Branch types
NOT_BRANCH: 40857507 81.715%
BRANCH_DIRECT_JUMP: 526635 1.05327%
BRANCH_INDIRECT: 205902 0.411804%
BRANCH_CONDITIONAL: 6184050 12.3681%
BRANCH_DIRECT_CALL: 938468 1.87694%
BRANCH_INDIRECT_CALL: 174486 0.348972%
BRANCH_RETURN: 1112959 2.22592%
BRANCH_OTHER: 0 0%

