Initialize SIGNATURE TABLE
ST_SET: 1
ST_WAY: 256
ST_TAG_BIT: 16
ST_TAG_MASK: ffff

Initialize PATTERN TABLE
PT_SET: 512
PT_WAY: 4
SIG_DELTA_BIT: 7
C_SIG_BIT: 4
C_DELTA_BIT: 4

Initialize PREFETCH FILTER
FILTER_SET: 1024

*** ChampSim Multicore Out-of-Order Simulator ***

Warmup Instructions: 50000000
Simulation Instructions: 50000000
Number of CPUs: 1
LLC sets: 2048
LLC ways: 16
Off-chip DRAM Size: 4096 MB Channels: 1 Width: 64-bit Data Rate: 3200 MT/s

CPU 0 runs /home/ChampSim-master//dpc3_traces/server_027.champsimtrace.xz
L1I D-JOLT instruction prefetcher has been constructed!
CPU 0 L1D next line prefetcher
Heartbeat CPU 0 instructions: 10000001 cycles: 3525619 heartbeat IPC: 2.83638 cumulative IPC: 2.83638 (Simulation time: 0 hr 2 min 39 sec) 
Heartbeat CPU 0 instructions: 20000001 cycles: 7056171 heartbeat IPC: 2.83242 cumulative IPC: 2.8344 (Simulation time: 0 hr 5 min 19 sec) 
Heartbeat CPU 0 instructions: 30000002 cycles: 10581736 heartbeat IPC: 2.83643 cumulative IPC: 2.83507 (Simulation time: 0 hr 8 min 6 sec) 
Heartbeat CPU 0 instructions: 40000000 cycles: 14113307 heartbeat IPC: 2.8316 cumulative IPC: 2.8342 (Simulation time: 0 hr 11 min 9 sec) 
Heartbeat CPU 0 instructions: 50000001 cycles: 17638511 heartbeat IPC: 2.83672 cumulative IPC: 2.83471 (Simulation time: 0 hr 14 min 0 sec) 

Warmup complete CPU 0 instructions: 50000001 cycles: 17638511 (Simulation time: 0 hr 14 min 0 sec) 

Heartbeat CPU 0 instructions: 60000002 cycles: 24502594 heartbeat IPC: 1.45686 cumulative IPC: 1.45686 (Simulation time: 0 hr 16 min 56 sec) 
Heartbeat CPU 0 instructions: 70000003 cycles: 31324348 heartbeat IPC: 1.4659 cumulative IPC: 1.46136 (Simulation time: 0 hr 19 min 50 sec) 
Heartbeat CPU 0 instructions: 80000002 cycles: 38155527 heartbeat IPC: 1.46388 cumulative IPC: 1.4622 (Simulation time: 0 hr 22 min 41 sec) 
Heartbeat CPU 0 instructions: 90000001 cycles: 45074533 heartbeat IPC: 1.44529 cumulative IPC: 1.45794 (Simulation time: 0 hr 25 min 20 sec) 
Heartbeat CPU 0 instructions: 100000002 cycles: 51868482 heartbeat IPC: 1.4719 cumulative IPC: 1.46071 (Simulation time: 0 hr 27 min 13 sec) 
Finished CPU 0 instructions: 50000001 cycles: 34229971 cumulative IPC: 1.46071 (Simulation time: 0 hr 27 min 13 sec) 

ChampSim completed all CPUs

Region of Interest Statistics

CPU 0 cumulative IPC: 1.46071 instructions: 50000001 cycles: 34229971
L1D TOTAL     ACCESS:   19875770  HIT:   18274108  MISS:    1601662
L1D LOAD      ACCESS:    6939357  HIT:    6247158  MISS:     692199
L1D RFO       ACCESS:    6285967  HIT:    6000981  MISS:     284986
L1D PREFETCH  ACCESS:    6650446  HIT:    6025969  MISS:     624477
L1D WRITEBACK ACCESS:          0  HIT:          0  MISS:          0
L1D PREFETCH  REQUESTED:    6984499  ISSUED:    6857082  USEFUL:     149547  USELESS:     474940
L1D AVERAGE MISS LATENCY: 24.2423 cycles
L1I TOTAL     ACCESS:   15900577  HIT:   12619344  MISS:    3281233
L1I LOAD      ACCESS:    9502577  HIT:    9453130  MISS:      49447
L1I RFO       ACCESS:          0  HIT:          0  MISS:          0
L1I PREFETCH  ACCESS:    6398000  HIT:    3166214  MISS:    3231786
L1I WRITEBACK ACCESS:          0  HIT:          0  MISS:          0
L1I PREFETCH  REQUESTED:    6781710  ISSUED:    6694501  USEFUL:    2764731  USELESS:     467089
L1I AVERAGE MISS LATENCY: 20.3154 cycles
L2C TOTAL     ACCESS:    6736852  HIT:    5789851  MISS:     947001
L2C LOAD      ACCESS:     704078  HIT:     554483  MISS:     149595
L2C RFO       ACCESS:     283562  HIT:     192539  MISS:      91023
L2C PREFETCH  ACCESS:    5190008  HIT:    4488820  MISS:     701188
L2C WRITEBACK ACCESS:     559204  HIT:     554009  MISS:       5195
L2C PREFETCH  REQUESTED:    4467900  ISSUED:    4460193  USEFUL:      10824  USELESS:     690172
L2C AVERAGE MISS LATENCY: 37.0172 cycles
LLC TOTAL     ACCESS:    2391954  HIT:    2357809  MISS:      34145
LLC LOAD      ACCESS:     149397  HIT:     145838  MISS:       3559
LLC RFO       ACCESS:      91019  HIT:      77079  MISS:      13940
LLC PREFETCH  ACCESS:    1989596  HIT:    1973132  MISS:      16464
LLC WRITEBACK ACCESS:     161942  HIT:     161760  MISS:        182
LLC PREFETCH  REQUESTED:          0  ISSUED:          0  USEFUL:       1312  USELESS:      14822
LLC AVERAGE MISS LATENCY: 184.046 cycles
Major fault: 0 Minor fault: 2483
CPU 0 L1D next line prefetcher final stats

DRAM Statistics
 CHANNEL 0
 RQ ROW_BUFFER_HIT:      11027  ROW_BUFFER_MISS:      22933
 DBUS_CONGESTED:      22683
 WQ ROW_BUFFER_HIT:       1641  ROW_BUFFER_MISS:      14545  FULL:          0

 AVG_CONGESTED_CYCLE: 6

CPU 0 Branch Prediction Accuracy: 99.8082% MPKI: 0.35064 Average ROB Occupancy at Mispredict: 186.027

Branch types
NOT_BRANCH: 40857507 81.715%
BRANCH_DIRECT_JUMP: 526635 1.05327%
BRANCH_INDIRECT: 205902 0.411804%
BRANCH_CONDITIONAL: 6184049 12.3681%
BRANCH_DIRECT_CALL: 938468 1.87694%
BRANCH_INDIRECT_CALL: 174486 0.348972%
BRANCH_RETURN: 1112959 2.22592%
BRANCH_OTHER: 0 0%

