Initialize SIGNATURE TABLE
ST_SET: 1
ST_WAY: 256
ST_TAG_BIT: 16
ST_TAG_MASK: ffff

Initialize PATTERN TABLE
PT_SET: 512
PT_WAY: 4
SIG_DELTA_BIT: 7
C_SIG_BIT: 4
C_DELTA_BIT: 4

Initialize PREFETCH FILTER
FILTER_SET: 1024

*** ChampSim Multicore Out-of-Order Simulator ***

Warmup Instructions: 50000000
Simulation Instructions: 50000000
Number of CPUs: 1
LLC sets: 2048
LLC ways: 16
Off-chip DRAM Size: 4096 MB Channels: 1 Width: 64-bit Data Rate: 3200 MT/s

CPU 0 runs /home/ChampSim-master//dpc3_traces/server_031.champsimtrace.xz
CPU 0 L1D next line prefetcher
Heartbeat CPU 0 instructions: 10000003 cycles: 3536537 heartbeat IPC: 2.82763 cumulative IPC: 2.82763 (Simulation time: 0 hr 6 min 20 sec) 
Heartbeat CPU 0 instructions: 20000002 cycles: 7069786 heartbeat IPC: 2.83026 cumulative IPC: 2.82894 (Simulation time: 0 hr 12 min 58 sec) 
Heartbeat CPU 0 instructions: 30000002 cycles: 10604133 heartbeat IPC: 2.82938 cumulative IPC: 2.82909 (Simulation time: 0 hr 18 min 51 sec) 
Heartbeat CPU 0 instructions: 40000003 cycles: 14135872 heartbeat IPC: 2.83147 cumulative IPC: 2.82968 (Simulation time: 0 hr 24 min 39 sec) 
Heartbeat CPU 0 instructions: 50000001 cycles: 17669682 heartbeat IPC: 2.82981 cumulative IPC: 2.82971 (Simulation time: 0 hr 30 min 16 sec) 

Warmup complete CPU 0 instructions: 50000001 cycles: 17669682 (Simulation time: 0 hr 30 min 16 sec) 

Heartbeat CPU 0 instructions: 60000001 cycles: 25254250 heartbeat IPC: 1.31847 cumulative IPC: 1.31847 (Simulation time: 0 hr 35 min 53 sec) 
Heartbeat CPU 0 instructions: 70000002 cycles: 32880592 heartbeat IPC: 1.31124 cumulative IPC: 1.31485 (Simulation time: 0 hr 41 min 20 sec) 
*** Reached end of trace for Core: 0 Repeating trace: /home/ChampSim-master//dpc3_traces/server_031.champsimtrace.xz
Heartbeat CPU 0 instructions: 80000000 cycles: 40398080 heartbeat IPC: 1.33023 cumulative IPC: 1.31993 (Simulation time: 0 hr 46 min 48 sec) 
Heartbeat CPU 0 instructions: 90000003 cycles: 47943506 heartbeat IPC: 1.32531 cumulative IPC: 1.32127 (Simulation time: 0 hr 51 min 49 sec) 
Heartbeat CPU 0 instructions: 100000000 cycles: 55449383 heartbeat IPC: 1.33229 cumulative IPC: 1.32346 (Simulation time: 0 hr 54 min 45 sec) 
Finished CPU 0 instructions: 50000000 cycles: 37779703 cumulative IPC: 1.32346 (Simulation time: 0 hr 54 min 45 sec) 

ChampSim completed all CPUs

Region of Interest Statistics

CPU 0 cumulative IPC: 1.32346 instructions: 50000000 cycles: 37779703
L1D TOTAL     ACCESS:   19489621  HIT:   17584999  MISS:    1904622
L1D LOAD      ACCESS:    6764664  HIT:    5890510  MISS:     874154
L1D RFO       ACCESS:    6306930  HIT:    6014972  MISS:     291958
L1D PREFETCH  ACCESS:    6418027  HIT:    5679517  MISS:     738510
L1D WRITEBACK ACCESS:          0  HIT:          0  MISS:          0
L1D PREFETCH  REQUESTED:    6830398  ISSUED:    6714320  USEFUL:     172531  USELESS:     565982
L1D AVERAGE MISS LATENCY: 24.4956 cycles
L1I TOTAL     ACCESS:   24835229  HIT:   18552566  MISS:    6282663
L1I LOAD      ACCESS:    9824658  HIT:    9778164  MISS:      46494
L1I RFO       ACCESS:          0  HIT:          0  MISS:          0
L1I PREFETCH  ACCESS:   15010571  HIT:    8774402  MISS:    6236169
L1I WRITEBACK ACCESS:          0  HIT:          0  MISS:          0
L1I PREFETCH  REQUESTED:   15070922  ISSUED:   15047310  USEFUL:    3206739  USELESS:    3029404
L1I AVERAGE MISS LATENCY: 16.7851 cycles
L2C TOTAL     ACCESS:   11166213  HIT:   10312988  MISS:     853225
L2C LOAD      ACCESS:     852831  HIT:     680181  MISS:     172650
L2C RFO       ACCESS:     289428  HIT:     222626  MISS:      66802
L2C PREFETCH  ACCESS:    9407041  HIT:    8799304  MISS:     607737
L2C WRITEBACK ACCESS:     616913  HIT:     610877  MISS:       6036
L2C PREFETCH  REQUESTED:    5662387  ISSUED:    5650540  USEFUL:       7659  USELESS:     599360
L2C AVERAGE MISS LATENCY: 39.9934 cycles
LLC TOTAL     ACCESS:    2378104  HIT:    2305746  MISS:      72358
LLC LOAD      ACCESS:     172470  HIT:     154397  MISS:      18073
LLC RFO       ACCESS:      66802  HIT:      62641  MISS:       4161
LLC PREFETCH  ACCESS:    2013831  HIT:    1964225  MISS:      49606
LLC WRITEBACK ACCESS:     125001  HIT:     124483  MISS:        518
LLC PREFETCH  REQUESTED:          0  ISSUED:          0  USEFUL:       2060  USELESS:      47314
LLC AVERAGE MISS LATENCY: 157.64 cycles
Major fault: 0 Minor fault: 6063
CPU 0 L1D next line prefetcher final stats

DRAM Statistics
 CHANNEL 0
 RQ ROW_BUFFER_HIT:      19957  ROW_BUFFER_MISS:      51877
 DBUS_CONGESTED:      27876
 WQ ROW_BUFFER_HIT:        672  ROW_BUFFER_MISS:       5117  FULL:          0

 AVG_CONGESTED_CYCLE: 4

CPU 0 Branch Prediction Accuracy: 99.6894% MPKI: 0.58048 Average ROB Occupancy at Mispredict: 145.688

Branch types
NOT_BRANCH: 40655672 81.3113%
BRANCH_DIRECT_JUMP: 546483 1.09297%
BRANCH_INDIRECT: 172433 0.344866%
BRANCH_CONDITIONAL: 6207597 12.4152%
BRANCH_DIRECT_CALL: 1018497 2.03699%
BRANCH_INDIRECT_CALL: 190373 0.380746%
BRANCH_RETURN: 1208855 2.41771%
BRANCH_OTHER: 0 0%

