Initialize SIGNATURE TABLE
ST_SET: 1
ST_WAY: 256
ST_TAG_BIT: 16
ST_TAG_MASK: ffff

Initialize PATTERN TABLE
PT_SET: 512
PT_WAY: 4
SIG_DELTA_BIT: 7
C_SIG_BIT: 4
C_DELTA_BIT: 4

Initialize PREFETCH FILTER
FILTER_SET: 1024

*** ChampSim Multicore Out-of-Order Simulator ***

Warmup Instructions: 50000000
Simulation Instructions: 50000000
Number of CPUs: 1
LLC sets: 2048
LLC ways: 16
Off-chip DRAM Size: 4096 MB Channels: 1 Width: 64-bit Data Rate: 3200 MT/s

CPU 0 runs /home/ChampSim-master//dpc3_traces/server_031.champsimtrace.xz
CPU 0 EPI prefetcher
CPU 0 L1D next line prefetcher
Heartbeat CPU 0 instructions: 10000003 cycles: 3521026 heartbeat IPC: 2.84008 cumulative IPC: 2.84008 (Simulation time: 0 hr 3 min 5 sec) 
Heartbeat CPU 0 instructions: 20000002 cycles: 7040266 heartbeat IPC: 2.84152 cumulative IPC: 2.8408 (Simulation time: 0 hr 6 min 53 sec) 
Heartbeat CPU 0 instructions: 30000002 cycles: 10559442 heartbeat IPC: 2.84157 cumulative IPC: 2.84106 (Simulation time: 0 hr 10 min 13 sec) 
Heartbeat CPU 0 instructions: 40000003 cycles: 14074980 heartbeat IPC: 2.84452 cumulative IPC: 2.84192 (Simulation time: 0 hr 13 min 48 sec) 
Heartbeat CPU 0 instructions: 50000001 cycles: 17592046 heartbeat IPC: 2.84328 cumulative IPC: 2.84219 (Simulation time: 0 hr 16 min 53 sec) 

Warmup complete CPU 0 instructions: 50000001 cycles: 17592046 (Simulation time: 0 hr 16 min 53 sec) 

Heartbeat CPU 0 instructions: 60000001 cycles: 25118489 heartbeat IPC: 1.32865 cumulative IPC: 1.32865 (Simulation time: 0 hr 19 min 42 sec) 
Heartbeat CPU 0 instructions: 70000002 cycles: 32708772 heartbeat IPC: 1.31747 cumulative IPC: 1.32304 (Simulation time: 0 hr 22 min 31 sec) 
*** Reached end of trace for Core: 0 Repeating trace: /home/ChampSim-master//dpc3_traces/server_031.champsimtrace.xz
Heartbeat CPU 0 instructions: 80000000 cycles: 40128331 heartbeat IPC: 1.34779 cumulative IPC: 1.33119 (Simulation time: 0 hr 25 min 23 sec) 
Heartbeat CPU 0 instructions: 90000003 cycles: 47566113 heartbeat IPC: 1.34449 cumulative IPC: 1.33449 (Simulation time: 0 hr 27 min 32 sec) 
Heartbeat CPU 0 instructions: 100000000 cycles: 54964290 heartbeat IPC: 1.35168 cumulative IPC: 1.33789 (Simulation time: 0 hr 28 min 47 sec) 
Finished CPU 0 instructions: 50000000 cycles: 37372246 cumulative IPC: 1.33789 (Simulation time: 0 hr 28 min 47 sec) 

ChampSim completed all CPUs

Region of Interest Statistics

CPU 0 cumulative IPC: 1.33789 instructions: 50000000 cycles: 37372246
L1D TOTAL     ACCESS:   19589419  HIT:   17685060  MISS:    1904359
L1D LOAD      ACCESS:    6800791  HIT:    5927607  MISS:     873184
L1D RFO       ACCESS:    6329878  HIT:    6038294  MISS:     291584
L1D PREFETCH  ACCESS:    6458750  HIT:    5719159  MISS:     739591
L1D WRITEBACK ACCESS:          0  HIT:          0  MISS:          0
L1D PREFETCH  REQUESTED:    6861968  ISSUED:    6749192  USEFUL:     173786  USELESS:     565809
L1D AVERAGE MISS LATENCY: 22.4278 cycles
L1I TOTAL     ACCESS:   27630055  HIT:   24146438  MISS:    3483617
L1I LOAD      ACCESS:    9552157  HIT:    9296991  MISS:     255166
L1I RFO       ACCESS:          0  HIT:          0  MISS:          0
L1I PREFETCH  ACCESS:   18077898  HIT:   14849447  MISS:    3228451
L1I WRITEBACK ACCESS:          0  HIT:          0  MISS:          0
L1I PREFETCH  REQUESTED:   21455246  ISSUED:   21455246  USEFUL:    2786703  USELESS:     441776
L1I AVERAGE MISS LATENCY: 17.9494 cycles
L2C TOTAL     ACCESS:    7759351  HIT:    7149876  MISS:     609475
L2C LOAD      ACCESS:    1036600  HIT:     900558  MISS:     136042
L2C RFO       ACCESS:     289612  HIT:     247817  MISS:      41795
L2C PREFETCH  ACCESS:    5816203  HIT:    5386000  MISS:     430203
L2C WRITEBACK ACCESS:     616936  HIT:     615501  MISS:       1435
L2C PREFETCH  REQUESTED:    6001315  ISSUED:    5976194  USEFUL:       6242  USELESS:     423237
L2C AVERAGE MISS LATENCY: 44.8296 cycles
LLC TOTAL     ACCESS:    2481377  HIT:    2395103  MISS:      86274
LLC LOAD      ACCESS:     135872  HIT:     116845  MISS:      19027
LLC RFO       ACCESS:      41793  HIT:      37539  MISS:       4254
LLC PREFETCH  ACCESS:    2227007  HIT:    2164676  MISS:      62331
LLC WRITEBACK ACCESS:      76705  HIT:      76043  MISS:        662
LLC PREFETCH  REQUESTED:          0  ISSUED:          0  USEFUL:       2818  USELESS:      59374
LLC AVERAGE MISS LATENCY: 160.659 cycles
Major fault: 0 Minor fault: 6041
CPU 0 L1I EPI prefetcher final stats
CPU 0 L1D next line prefetcher final stats

DRAM Statistics
 CHANNEL 0
 RQ ROW_BUFFER_HIT:      23030  ROW_BUFFER_MISS:      62577
 DBUS_CONGESTED:      34533
 WQ ROW_BUFFER_HIT:        806  ROW_BUFFER_MISS:       5333  FULL:          0

 AVG_CONGESTED_CYCLE: 5

CPU 0 Branch Prediction Accuracy: 99.6894% MPKI: 0.58048 Average ROB Occupancy at Mispredict: 138.87

Branch types
NOT_BRANCH: 40655602 81.3112%
BRANCH_DIRECT_JUMP: 546484 1.09297%
BRANCH_INDIRECT: 172433 0.344866%
BRANCH_CONDITIONAL: 6207575 12.4152%
BRANCH_DIRECT_CALL: 1018498 2.037%
BRANCH_INDIRECT_CALL: 190373 0.380746%
BRANCH_RETURN: 1208857 2.41771%
BRANCH_OTHER: 0 0%

