Initialize SIGNATURE TABLE
ST_SET: 1
ST_WAY: 256
ST_TAG_BIT: 16
ST_TAG_MASK: ffff

Initialize PATTERN TABLE
PT_SET: 512
PT_WAY: 4
SIG_DELTA_BIT: 7
C_SIG_BIT: 4
C_DELTA_BIT: 4

Initialize PREFETCH FILTER
FILTER_SET: 1024

*** ChampSim Multicore Out-of-Order Simulator ***

Warmup Instructions: 50000000
Simulation Instructions: 50000000
Number of CPUs: 1
LLC sets: 2048
LLC ways: 16
Off-chip DRAM Size: 4096 MB Channels: 1 Width: 64-bit Data Rate: 3200 MT/s

CPU 0 runs /home/ChampSim-master//dpc3_traces/server_013.champsimtrace.xz
L1I D-JOLT instruction prefetcher has been constructed!
CPU 0 L1D next line prefetcher
Heartbeat CPU 0 instructions: 10000000 cycles: 3211121 heartbeat IPC: 3.11418 cumulative IPC: 3.11418 (Simulation time: 0 hr 3 min 1 sec) 
Heartbeat CPU 0 instructions: 20000001 cycles: 6411710 heartbeat IPC: 3.12443 cumulative IPC: 3.11929 (Simulation time: 0 hr 5 min 58 sec) 
Heartbeat CPU 0 instructions: 30000002 cycles: 9616456 heartbeat IPC: 3.12037 cumulative IPC: 3.11965 (Simulation time: 0 hr 8 min 28 sec) 
Heartbeat CPU 0 instructions: 40000002 cycles: 12817541 heartbeat IPC: 3.12394 cumulative IPC: 3.12072 (Simulation time: 0 hr 10 min 55 sec) 
Heartbeat CPU 0 instructions: 50000000 cycles: 16017900 heartbeat IPC: 3.12465 cumulative IPC: 3.12151 (Simulation time: 0 hr 13 min 25 sec) 

Warmup complete CPU 0 instructions: 50000004 cycles: 16017901 (Simulation time: 0 hr 13 min 25 sec) 

Heartbeat CPU 0 instructions: 60000002 cycles: 23621124 heartbeat IPC: 1.31523 cumulative IPC: 1.31523 (Simulation time: 0 hr 15 min 50 sec) 
Heartbeat CPU 0 instructions: 70000002 cycles: 31368256 heartbeat IPC: 1.2908 cumulative IPC: 1.3029 (Simulation time: 0 hr 18 min 33 sec) 
Heartbeat CPU 0 instructions: 80000003 cycles: 38588033 heartbeat IPC: 1.38508 cumulative IPC: 1.32919 (Simulation time: 0 hr 21 min 1 sec) 
Heartbeat CPU 0 instructions: 90000003 cycles: 45994229 heartbeat IPC: 1.35022 cumulative IPC: 1.33439 (Simulation time: 0 hr 23 min 17 sec) 
Heartbeat CPU 0 instructions: 100000003 cycles: 53421017 heartbeat IPC: 1.34648 cumulative IPC: 1.33679 (Simulation time: 0 hr 25 min 27 sec) 
Finished CPU 0 instructions: 50000003 cycles: 37403117 cumulative IPC: 1.33679 (Simulation time: 0 hr 25 min 27 sec) 

ChampSim completed all CPUs

Region of Interest Statistics

CPU 0 cumulative IPC: 1.33679 instructions: 50000003 cycles: 37403117
L1D TOTAL     ACCESS:   17310733  HIT:   16244290  MISS:    1066443
L1D LOAD      ACCESS:    6311091  HIT:    5809937  MISS:     501154
L1D RFO       ACCESS:    4928584  HIT:    4848366  MISS:      80218
L1D PREFETCH  ACCESS:    6071058  HIT:    5585987  MISS:     485071
L1D WRITEBACK ACCESS:          0  HIT:          0  MISS:          0
L1D PREFETCH  REQUESTED:    6345412  ISSUED:    6251238  USEFUL:     133524  USELESS:     351557
L1D AVERAGE MISS LATENCY: 42.7721 cycles
L1I TOTAL     ACCESS:   16422980  HIT:   14285756  MISS:    2137224
L1I LOAD      ACCESS:    8727542  HIT:    8640633  MISS:      86909
L1I RFO       ACCESS:          0  HIT:          0  MISS:          0
L1I PREFETCH  ACCESS:    7695438  HIT:    5645123  MISS:    2050315
L1I WRITEBACK ACCESS:          0  HIT:          0  MISS:          0
L1I PREFETCH  REQUESTED:    8527316  ISSUED:    8031987  USEFUL:    1464029  USELESS:     586252
L1I AVERAGE MISS LATENCY: 31.1525 cycles
L2C TOTAL     ACCESS:    4193170  HIT:    2800284  MISS:    1392886
L2C LOAD      ACCESS:     525653  HIT:     240627  MISS:     285026
L2C RFO       ACCESS:      78864  HIT:      31135  MISS:      47729
L2C PREFETCH  ACCESS:    3312867  HIT:    2254461  MISS:    1058406
L2C WRITEBACK ACCESS:     275786  HIT:     274061  MISS:       1725
L2C PREFETCH  REQUESTED:    3065730  ISSUED:    3061718  USEFUL:      26828  USELESS:    1031760
L2C AVERAGE MISS LATENCY: 47.3043 cycles
LLC TOTAL     ACCESS:    2554999  HIT:    2369102  MISS:     185897
LLC LOAD      ACCESS:     284879  HIT:     260634  MISS:      24245
LLC RFO       ACCESS:      47721  HIT:      37982  MISS:       9739
LLC PREFETCH  ACCESS:    2050527  HIT:    1898892  MISS:     151635
LLC WRITEBACK ACCESS:     171872  HIT:     171594  MISS:        278
LLC PREFETCH  REQUESTED:          0  ISSUED:          0  USEFUL:      12938  USELESS:     137586
LLC AVERAGE MISS LATENCY: 175.747 cycles
Major fault: 0 Minor fault: 6209
CPU 0 L1D next line prefetcher final stats

DRAM Statistics
 CHANNEL 0
 RQ ROW_BUFFER_HIT:      29427  ROW_BUFFER_MISS:     156178
 DBUS_CONGESTED:      76108
 WQ ROW_BUFFER_HIT:      12454  ROW_BUFFER_MISS:      51230  FULL:          0

 AVG_CONGESTED_CYCLE: 5

CPU 0 Branch Prediction Accuracy: 99.4114% MPKI: 1.0933 Average ROB Occupancy at Mispredict: 124.913

Branch types
NOT_BRANCH: 40713271 81.4265%
BRANCH_DIRECT_JUMP: 463701 0.927402%
BRANCH_INDIRECT: 146544 0.293088%
BRANCH_CONDITIONAL: 6981954 13.9639%
BRANCH_DIRECT_CALL: 665005 1.33001%
BRANCH_INDIRECT_CALL: 165152 0.330304%
BRANCH_RETURN: 864314 1.72863%
BRANCH_OTHER: 0 0%

