Initialize SIGNATURE TABLE
ST_SET: 1
ST_WAY: 256
ST_TAG_BIT: 16
ST_TAG_MASK: ffff

Initialize PATTERN TABLE
PT_SET: 512
PT_WAY: 4
SIG_DELTA_BIT: 7
C_SIG_BIT: 4
C_DELTA_BIT: 4

Initialize PREFETCH FILTER
FILTER_SET: 1024

*** ChampSim Multicore Out-of-Order Simulator ***

Warmup Instructions: 50000000
Simulation Instructions: 50000000
Number of CPUs: 1
LLC sets: 2048
LLC ways: 16
Off-chip DRAM Size: 4096 MB Channels: 1 Width: 64-bit Data Rate: 3200 MT/s

CPU 0 runs /home/ChampSim-master//dpc3_traces/server_001.champsimtrace.xz
CPU 0 EPI prefetcher
CPU 0 L1D next line prefetcher
Heartbeat CPU 0 instructions: 10000002 cycles: 3155645 heartbeat IPC: 3.16892 cumulative IPC: 3.16892 (Simulation time: 0 hr 2 min 45 sec) 
Heartbeat CPU 0 instructions: 20000000 cycles: 6370958 heartbeat IPC: 3.11012 cumulative IPC: 3.13925 (Simulation time: 0 hr 5 min 56 sec) 
Heartbeat CPU 0 instructions: 30000003 cycles: 9558370 heartbeat IPC: 3.13734 cumulative IPC: 3.13861 (Simulation time: 0 hr 8 min 45 sec) 
Heartbeat CPU 0 instructions: 40000002 cycles: 12767002 heartbeat IPC: 3.11659 cumulative IPC: 3.13308 (Simulation time: 0 hr 11 min 33 sec) 
Heartbeat CPU 0 instructions: 50000003 cycles: 15986920 heartbeat IPC: 3.10567 cumulative IPC: 3.12756 (Simulation time: 0 hr 14 min 22 sec) 

Warmup complete CPU 0 instructions: 50000003 cycles: 15986920 (Simulation time: 0 hr 14 min 22 sec) 

Heartbeat CPU 0 instructions: 60000000 cycles: 23074110 heartbeat IPC: 1.411 cumulative IPC: 1.411 (Simulation time: 0 hr 16 min 52 sec) 
Heartbeat CPU 0 instructions: 70000001 cycles: 29866781 heartbeat IPC: 1.47218 cumulative IPC: 1.44094 (Simulation time: 0 hr 19 min 22 sec) 
Heartbeat CPU 0 instructions: 80000002 cycles: 36673171 heartbeat IPC: 1.46921 cumulative IPC: 1.45024 (Simulation time: 0 hr 21 min 52 sec) 
Heartbeat CPU 0 instructions: 90000002 cycles: 43730972 heartbeat IPC: 1.41687 cumulative IPC: 1.44175 (Simulation time: 0 hr 24 min 24 sec) 
Heartbeat CPU 0 instructions: 100000003 cycles: 50417388 heartbeat IPC: 1.49557 cumulative IPC: 1.4522 (Simulation time: 0 hr 26 min 49 sec) 
Finished CPU 0 instructions: 50000000 cycles: 34430468 cumulative IPC: 1.4522 (Simulation time: 0 hr 26 min 49 sec) 

ChampSim completed all CPUs

Region of Interest Statistics

CPU 0 cumulative IPC: 1.4522 instructions: 50000000 cycles: 34430468
L1D TOTAL     ACCESS:   17596374  HIT:   17085286  MISS:     511088
L1D LOAD      ACCESS:    6434490  HIT:    6229522  MISS:     204968
L1D RFO       ACCESS:    5052467  HIT:    4969862  MISS:      82605
L1D PREFETCH  ACCESS:    6109417  HIT:    5885902  MISS:     223515
L1D WRITEBACK ACCESS:          0  HIT:          0  MISS:          0
L1D PREFETCH  REQUESTED:    6463127  ISSUED:    6286064  USEFUL:     131825  USELESS:      91818
L1D AVERAGE MISS LATENCY: 96.0562 cycles
L1I TOTAL     ACCESS:   35662001  HIT:   34993249  MISS:     668752
L1I LOAD      ACCESS:    8248586  HIT:    8226959  MISS:      21627
L1I RFO       ACCESS:          0  HIT:          0  MISS:          0
L1I PREFETCH  ACCESS:   27413415  HIT:   26766290  MISS:     647125
L1I WRITEBACK ACCESS:          0  HIT:          0  MISS:          0
L1I PREFETCH  REQUESTED:   34185870  ISSUED:   34185870  USEFUL:     505532  USELESS:     141673
L1I AVERAGE MISS LATENCY: 41.863 cycles
L2C TOTAL     ACCESS:    1761417  HIT:    1283514  MISS:     477903
L2C LOAD      ACCESS:     177445  HIT:      86143  MISS:      91302
L2C RFO       ACCESS:      80903  HIT:      10130  MISS:      70773
L2C PREFETCH  ACCESS:    1295203  HIT:     979863  MISS:     315340
L2C WRITEBACK ACCESS:     207866  HIT:     207378  MISS:        488
L2C PREFETCH  REQUESTED:    1780636  ISSUED:    1775912  USEFUL:      21506  USELESS:     293689
L2C AVERAGE MISS LATENCY: 132.094 cycles
LLC TOTAL     ACCESS:    1169522  HIT:     824883  MISS:     344639
LLC LOAD      ACCESS:      91188  HIT:      60638  MISS:      30550
LLC RFO       ACCESS:      70771  HIT:       6886  MISS:      63885
LLC PREFETCH  ACCESS:     839910  HIT:     590053  MISS:     249857
LLC WRITEBACK ACCESS:     167653  HIT:     167306  MISS:        347
LLC PREFETCH  REQUESTED:          0  ISSUED:          0  USEFUL:      26227  USELESS:     218506
LLC AVERAGE MISS LATENCY: 239.497 cycles
Major fault: 0 Minor fault: 16704
CPU 0 L1I EPI prefetcher final stats
CPU 0 L1D next line prefetcher final stats

DRAM Statistics
 CHANNEL 0
 RQ ROW_BUFFER_HIT:     108537  ROW_BUFFER_MISS:     235693
 DBUS_CONGESTED:     236880
 WQ ROW_BUFFER_HIT:      35037  ROW_BUFFER_MISS:     124575  FULL:          0

 AVG_CONGESTED_CYCLE: 6

CPU 0 Branch Prediction Accuracy: 99.5889% MPKI: 0.70108 Average ROB Occupancy at Mispredict: 116.639

Branch types
NOT_BRANCH: 41473577 82.9472%
BRANCH_DIRECT_JUMP: 347941 0.695882%
BRANCH_INDIRECT: 148212 0.296424%
BRANCH_CONDITIONAL: 6817276 13.6346%
BRANCH_DIRECT_CALL: 570724 1.14145%
BRANCH_INDIRECT_CALL: 25133 0.050266%
BRANCH_RETURN: 617123 1.23425%
BRANCH_OTHER: 0 0%

