Initialize SIGNATURE TABLE
ST_SET: 1
ST_WAY: 256
ST_TAG_BIT: 16
ST_TAG_MASK: ffff

Initialize PATTERN TABLE
PT_SET: 512
PT_WAY: 4
SIG_DELTA_BIT: 7
C_SIG_BIT: 4
C_DELTA_BIT: 4

Initialize PREFETCH FILTER
FILTER_SET: 1024

*** ChampSim Multicore Out-of-Order Simulator ***

Warmup Instructions: 50000000
Simulation Instructions: 50000000
Number of CPUs: 1
LLC sets: 2048
LLC ways: 16
Off-chip DRAM Size: 4096 MB Channels: 1 Width: 64-bit Data Rate: 3200 MT/s

CPU 0 runs /home/ChampSim-master//dpc3_traces/server_002.champsimtrace.xz
L1I D-JOLT instruction prefetcher has been constructed!
CPU 0 L1D next line prefetcher
Heartbeat CPU 0 instructions: 10000000 cycles: 3581221 heartbeat IPC: 2.79234 cumulative IPC: 2.79234 (Simulation time: 0 hr 2 min 55 sec) 
Heartbeat CPU 0 instructions: 20000002 cycles: 7170136 heartbeat IPC: 2.78636 cumulative IPC: 2.78935 (Simulation time: 0 hr 5 min 55 sec) 
Heartbeat CPU 0 instructions: 30000000 cycles: 10710872 heartbeat IPC: 2.82427 cumulative IPC: 2.80089 (Simulation time: 0 hr 8 min 55 sec) 
Heartbeat CPU 0 instructions: 40000000 cycles: 14261117 heartbeat IPC: 2.81671 cumulative IPC: 2.80483 (Simulation time: 0 hr 11 min 52 sec) 
Heartbeat CPU 0 instructions: 50000001 cycles: 17808888 heartbeat IPC: 2.81867 cumulative IPC: 2.80759 (Simulation time: 0 hr 14 min 48 sec) 

Warmup complete CPU 0 instructions: 50000001 cycles: 17808888 (Simulation time: 0 hr 14 min 48 sec) 

Heartbeat CPU 0 instructions: 60000000 cycles: 24247863 heartbeat IPC: 1.55304 cumulative IPC: 1.55304 (Simulation time: 0 hr 17 min 38 sec) 
Heartbeat CPU 0 instructions: 70000003 cycles: 30681515 heartbeat IPC: 1.55433 cumulative IPC: 1.55368 (Simulation time: 0 hr 20 min 41 sec) 
Heartbeat CPU 0 instructions: 80000003 cycles: 37117880 heartbeat IPC: 1.55367 cumulative IPC: 1.55368 (Simulation time: 0 hr 23 min 20 sec) 
Heartbeat CPU 0 instructions: 90000002 cycles: 43551886 heartbeat IPC: 1.55424 cumulative IPC: 1.55382 (Simulation time: 0 hr 25 min 38 sec) 
Heartbeat CPU 0 instructions: 100000003 cycles: 49985267 heartbeat IPC: 1.55439 cumulative IPC: 1.55394 (Simulation time: 0 hr 27 min 0 sec) 
Finished CPU 0 instructions: 50000002 cycles: 32176379 cumulative IPC: 1.55393 (Simulation time: 0 hr 27 min 0 sec) 

ChampSim completed all CPUs

Region of Interest Statistics

CPU 0 cumulative IPC: 1.55393 instructions: 50000002 cycles: 32176379
L1D TOTAL     ACCESS:   21522425  HIT:   21521615  MISS:        810
L1D LOAD      ACCESS:    6600844  HIT:    6600468  MISS:        376
L1D RFO       ACCESS:    8433019  HIT:    8432906  MISS:        113
L1D PREFETCH  ACCESS:    6488562  HIT:    6488241  MISS:        321
L1D WRITEBACK ACCESS:          0  HIT:          0  MISS:          0
L1D PREFETCH  REQUESTED:    6600898  ISSUED:    6495920  USEFUL:         92  USELESS:        230
L1D AVERAGE MISS LATENCY: 37.9025 cycles
L1I TOTAL     ACCESS:   19451169  HIT:   15359852  MISS:    4091317
L1I LOAD      ACCESS:    9890722  HIT:    9874821  MISS:      15901
L1I RFO       ACCESS:          0  HIT:          0  MISS:          0
L1I PREFETCH  ACCESS:    9560447  HIT:    5485031  MISS:    4075416
L1I WRITEBACK ACCESS:          0  HIT:          0  MISS:          0
L1I PREFETCH  REQUESTED:   10152749  ISSUED:    9814535  USEFUL:    2439860  USELESS:    1635538
L1I AVERAGE MISS LATENCY: 14.4652 cycles
L2C TOTAL     ACCESS:    5607383  HIT:    5607018  MISS:        365
L2C LOAD      ACCESS:      16243  HIT:      16178  MISS:         65
L2C RFO       ACCESS:        112  HIT:        109  MISS:          3
L2C PREFETCH  ACCESS:    5590692  HIT:    5590395  MISS:        297
L2C WRITEBACK ACCESS:        336  HIT:        336  MISS:          0
L2C PREFETCH  REQUESTED:    3577760  ISSUED:    3577522  USEFUL:        112  USELESS:        161
L2C AVERAGE MISS LATENCY: 127.066 cycles
LLC TOTAL     ACCESS:     747733  HIT:     747026  MISS:        707
LLC LOAD      ACCESS:         65  HIT:         54  MISS:         11
LLC RFO       ACCESS:          3  HIT:          1  MISS:          2
LLC PREFETCH  ACCESS:     747569  HIT:     746878  MISS:        691
LLC WRITEBACK ACCESS:         96  HIT:         93  MISS:          3
LLC PREFETCH  REQUESTED:          0  ISSUED:          0  USEFUL:         12  USELESS:        165
LLC AVERAGE MISS LATENCY: 342.512 cycles
Major fault: 0 Minor fault: 1871
CPU 0 L1D next line prefetcher final stats

DRAM Statistics
 CHANNEL 0
 RQ ROW_BUFFER_HIT:         98  ROW_BUFFER_MISS:        605
 DBUS_CONGESTED:        420
 WQ ROW_BUFFER_HIT:         78  ROW_BUFFER_MISS:        417  FULL:          0

 AVG_CONGESTED_CYCLE: 6

CPU 0 Branch Prediction Accuracy: 99.8789% MPKI: 0.20388 Average ROB Occupancy at Mispredict: 269.077

Branch types
NOT_BRANCH: 41580695 83.1614%
BRANCH_DIRECT_JUMP: 461630 0.92326%
BRANCH_INDIRECT: 0 0%
BRANCH_CONDITIONAL: 5376437 10.7529%
BRANCH_DIRECT_CALL: 1175775 2.35155%
BRANCH_INDIRECT_CALL: 114840 0.22968%
BRANCH_RETURN: 1290625 2.58125%
BRANCH_OTHER: 0 0%

