Initialize SIGNATURE TABLE
ST_SET: 1
ST_WAY: 256
ST_TAG_BIT: 16
ST_TAG_MASK: ffff

Initialize PATTERN TABLE
PT_SET: 512
PT_WAY: 4
SIG_DELTA_BIT: 7
C_SIG_BIT: 4
C_DELTA_BIT: 4

Initialize PREFETCH FILTER
FILTER_SET: 1024

*** ChampSim Multicore Out-of-Order Simulator ***

Warmup Instructions: 50000000
Simulation Instructions: 50000000
Number of CPUs: 1
LLC sets: 2048
LLC ways: 16
Off-chip DRAM Size: 4096 MB Channels: 1 Width: 64-bit Data Rate: 3200 MT/s

CPU 0 runs /home/ChampSim-master//dpc3_traces/server_009.champsimtrace.xz
L1I D-JOLT instruction prefetcher has been constructed!
CPU 0 L1D next line prefetcher
Heartbeat CPU 0 instructions: 10000003 cycles: 3196377 heartbeat IPC: 3.12854 cumulative IPC: 3.12854 (Simulation time: 0 hr 3 min 35 sec) 
Heartbeat CPU 0 instructions: 20000001 cycles: 6385591 heartbeat IPC: 3.13557 cumulative IPC: 3.13205 (Simulation time: 0 hr 7 min 17 sec) 
Heartbeat CPU 0 instructions: 30000002 cycles: 9590202 heartbeat IPC: 3.1205 cumulative IPC: 3.12819 (Simulation time: 0 hr 10 min 27 sec) 
Heartbeat CPU 0 instructions: 40000003 cycles: 12790828 heartbeat IPC: 3.12439 cumulative IPC: 3.12724 (Simulation time: 0 hr 13 min 36 sec) 
Heartbeat CPU 0 instructions: 50000000 cycles: 16048422 heartbeat IPC: 3.06975 cumulative IPC: 3.11557 (Simulation time: 0 hr 16 min 16 sec) 

Warmup complete CPU 0 instructions: 50000004 cycles: 16048423 (Simulation time: 0 hr 16 min 16 sec) 

Heartbeat CPU 0 instructions: 60000002 cycles: 31741584 heartbeat IPC: 0.63722 cumulative IPC: 0.63722 (Simulation time: 0 hr 19 min 16 sec) 
Heartbeat CPU 0 instructions: 70000003 cycles: 52811701 heartbeat IPC: 0.474606 cumulative IPC: 0.544021 (Simulation time: 0 hr 22 min 46 sec) 
Heartbeat CPU 0 instructions: 80000000 cycles: 59971826 heartbeat IPC: 1.39662 cumulative IPC: 0.683007 (Simulation time: 0 hr 24 min 41 sec) 
Heartbeat CPU 0 instructions: 90000001 cycles: 67259878 heartbeat IPC: 1.37211 cumulative IPC: 0.781075 (Simulation time: 0 hr 26 min 2 sec) 
Heartbeat CPU 0 instructions: 100000003 cycles: 74429971 heartbeat IPC: 1.39468 cumulative IPC: 0.856435 (Simulation time: 0 hr 26 min 44 sec) 
Finished CPU 0 instructions: 50000003 cycles: 58381549 cumulative IPC: 0.856435 (Simulation time: 0 hr 26 min 44 sec) 

ChampSim completed all CPUs

Region of Interest Statistics

CPU 0 cumulative IPC: 0.856435 instructions: 50000003 cycles: 58381549
L1D TOTAL     ACCESS:   21635038  HIT:   17055522  MISS:    4579516
L1D LOAD      ACCESS:    8633197  HIT:    6352855  MISS:    2280342
L1D RFO       ACCESS:    4581889  HIT:    4477422  MISS:     104467
L1D PREFETCH  ACCESS:    8419952  HIT:    6225245  MISS:    2194707
L1D WRITEBACK ACCESS:          0  HIT:          0  MISS:          0
L1D PREFETCH  REQUESTED:    8665695  ISSUED:    8568554  USEFUL:     106250  USELESS:    2088456
L1D AVERAGE MISS LATENCY: 20.3613 cycles
L1I TOTAL     ACCESS:   16965849  HIT:   15430487  MISS:    1535362
L1I LOAD      ACCESS:   10776031  HIT:   10701901  MISS:      74130
L1I RFO       ACCESS:          0  HIT:          0  MISS:          0
L1I PREFETCH  ACCESS:    6189818  HIT:    4728586  MISS:    1461232
L1I WRITEBACK ACCESS:          0  HIT:          0  MISS:          0
L1I PREFETCH  REQUESTED:    6854420  ISSUED:    6449227  USEFUL:    1079430  USELESS:     381783
L1I AVERAGE MISS LATENCY: 31.0959 cycles
L2C TOTAL     ACCESS:    7878974  HIT:    6830379  MISS:    1048595
L2C LOAD      ACCESS:    2298692  HIT:    2076400  MISS:     222292
L2C RFO       ACCESS:     103502  HIT:      63673  MISS:      39829
L2C PREFETCH  ACCESS:    5219918  HIT:    4434581  MISS:     785337
L2C WRITEBACK ACCESS:     256862  HIT:     255725  MISS:       1137
L2C PREFETCH  REQUESTED:    6363580  ISSUED:    6361469  USEFUL:      22309  USELESS:     761889
L2C AVERAGE MISS LATENCY: 47.0072 cycles
LLC TOTAL     ACCESS:    2296517  HIT:    2164011  MISS:     132506
LLC LOAD      ACCESS:     222077  HIT:     201935  MISS:      20142
LLC RFO       ACCESS:      39820  HIT:      31364  MISS:       8456
LLC PREFETCH  ACCESS:    1897750  HIT:    1794057  MISS:     103693
LLC WRITEBACK ACCESS:     136870  HIT:     136655  MISS:        215
LLC PREFETCH  REQUESTED:          0  ISSUED:          0  USEFUL:      11322  USELESS:      91135
LLC AVERAGE MISS LATENCY: 172.939 cycles
Major fault: 0 Minor fault: 6364
CPU 0 L1D next line prefetcher final stats

DRAM Statistics
 CHANNEL 0
 RQ ROW_BUFFER_HIT:      25241  ROW_BUFFER_MISS:     107041
 DBUS_CONGESTED:      55602
 WQ ROW_BUFFER_HIT:       8515  ROW_BUFFER_MISS:      37199  FULL:          0

 AVG_CONGESTED_CYCLE: 5

CPU 0 Branch Prediction Accuracy: 99.4713% MPKI: 1.11484 Average ROB Occupancy at Mispredict: 119.084

Branch types
NOT_BRANCH: 39456615 78.9132%
BRANCH_DIRECT_JUMP: 445350 0.8907%
BRANCH_INDIRECT: 131149 0.262298%
BRANCH_CONDITIONAL: 8130196 16.2604%
BRANCH_DIRECT_CALL: 732485 1.46497%
BRANCH_INDIRECT_CALL: 172369 0.344738%
BRANCH_RETURN: 931558 1.86312%
BRANCH_OTHER: 0 0%

