Initialize SIGNATURE TABLE
ST_SET: 1
ST_WAY: 256
ST_TAG_BIT: 16
ST_TAG_MASK: ffff

Initialize PATTERN TABLE
PT_SET: 512
PT_WAY: 4
SIG_DELTA_BIT: 7
C_SIG_BIT: 4
C_DELTA_BIT: 4

Initialize PREFETCH FILTER
FILTER_SET: 1024

*** ChampSim Multicore Out-of-Order Simulator ***

Warmup Instructions: 50000000
Simulation Instructions: 50000000
Number of CPUs: 1
LLC sets: 2048
LLC ways: 16
Off-chip DRAM Size: 4096 MB Channels: 1 Width: 64-bit Data Rate: 3200 MT/s

CPU 0 runs /home/ChampSim-master//dpc3_traces/server_033.champsimtrace.xz
L1I D-JOLT instruction prefetcher has been constructed!
CPU 0 L1D next line prefetcher
Heartbeat CPU 0 instructions: 10000001 cycles: 3342602 heartbeat IPC: 2.99168 cumulative IPC: 2.99168 (Simulation time: 0 hr 3 min 5 sec) 
Heartbeat CPU 0 instructions: 20000002 cycles: 6683952 heartbeat IPC: 2.9928 cumulative IPC: 2.99224 (Simulation time: 0 hr 6 min 1 sec) 
Heartbeat CPU 0 instructions: 30000001 cycles: 10015394 heartbeat IPC: 3.0017 cumulative IPC: 2.99539 (Simulation time: 0 hr 9 min 21 sec) 
Heartbeat CPU 0 instructions: 40000000 cycles: 13356138 heartbeat IPC: 2.99334 cumulative IPC: 2.99488 (Simulation time: 0 hr 12 min 52 sec) 
Heartbeat CPU 0 instructions: 50000000 cycles: 16696013 heartbeat IPC: 2.99412 cumulative IPC: 2.99473 (Simulation time: 0 hr 15 min 43 sec) 

Warmup complete CPU 0 instructions: 50000004 cycles: 16696014 (Simulation time: 0 hr 15 min 43 sec) 

Heartbeat CPU 0 instructions: 60000000 cycles: 23279534 heartbeat IPC: 1.51894 cumulative IPC: 1.51894 (Simulation time: 0 hr 18 min 42 sec) 
Heartbeat CPU 0 instructions: 70000000 cycles: 29837334 heartbeat IPC: 1.5249 cumulative IPC: 1.52192 (Simulation time: 0 hr 21 min 32 sec) 
Heartbeat CPU 0 instructions: 80000000 cycles: 37209752 heartbeat IPC: 1.35641 cumulative IPC: 1.46243 (Simulation time: 0 hr 24 min 7 sec) 
Heartbeat CPU 0 instructions: 90000003 cycles: 43839991 heartbeat IPC: 1.50824 cumulative IPC: 1.47362 (Simulation time: 0 hr 25 min 51 sec) 
Heartbeat CPU 0 instructions: 100000003 cycles: 50444093 heartbeat IPC: 1.51421 cumulative IPC: 1.48157 (Simulation time: 0 hr 26 min 41 sec) 
Finished CPU 0 instructions: 50000003 cycles: 33748080 cumulative IPC: 1.48157 (Simulation time: 0 hr 26 min 41 sec) 

ChampSim completed all CPUs

Region of Interest Statistics

CPU 0 cumulative IPC: 1.48157 instructions: 50000003 cycles: 33748080
L1D TOTAL     ACCESS:   18225144  HIT:   16742817  MISS:    1482327
L1D LOAD      ACCESS:    6139002  HIT:    5455103  MISS:     683899
L1D RFO       ACCESS:    6162494  HIT:    6013231  MISS:     149263
L1D PREFETCH  ACCESS:    5923648  HIT:    5274483  MISS:     649165
L1D WRITEBACK ACCESS:          0  HIT:          0  MISS:          0
L1D PREFETCH  REQUESTED:    6180603  ISSUED:    6060152  USEFUL:     140906  USELESS:     508265
L1D AVERAGE MISS LATENCY: 24.2309 cycles
L1I TOTAL     ACCESS:   19213443  HIT:   15199206  MISS:    4014237
L1I LOAD      ACCESS:    9698813  HIT:    9650080  MISS:      48733
L1I RFO       ACCESS:          0  HIT:          0  MISS:          0
L1I PREFETCH  ACCESS:    9514630  HIT:    5549126  MISS:    3965504
L1I WRITEBACK ACCESS:          0  HIT:          0  MISS:          0
L1I PREFETCH  REQUESTED:   10110387  ISSUED:    9978771  USEFUL:    3320793  USELESS:     644691
L1I AVERAGE MISS LATENCY: 15.5337 cycles
L2C TOTAL     ACCESS:    7571776  HIT:    7238746  MISS:     333030
L2C LOAD      ACCESS:     720369  HIT:     598040  MISS:     122329
L2C RFO       ACCESS:     147868  HIT:     125889  MISS:      21979
L2C PREFETCH  ACCESS:    6337035  HIT:    6150795  MISS:     186240
L2C WRITEBACK ACCESS:     366504  HIT:     364022  MISS:       2482
L2C PREFETCH  REQUESTED:    5973087  ISSUED:    5946329  USEFUL:       9080  USELESS:     176920
L2C AVERAGE MISS LATENCY: 50.0528 cycles
LLC TOTAL     ACCESS:    2338417  HIT:    2268215  MISS:      70202
LLC LOAD      ACCESS:     122269  HIT:     107142  MISS:      15127
LLC RFO       ACCESS:      21978  HIT:      18766  MISS:       3212
LLC PREFETCH  ACCESS:    2085947  HIT:    2034492  MISS:      51455
LLC WRITEBACK ACCESS:     108223  HIT:     107815  MISS:        408
LLC PREFETCH  REQUESTED:          0  ISSUED:          0  USEFUL:       7177  USELESS:      42239
LLC AVERAGE MISS LATENCY: 175.924 cycles
Major fault: 0 Minor fault: 2486
CPU 0 L1D next line prefetcher final stats

DRAM Statistics
 CHANNEL 0
 RQ ROW_BUFFER_HIT:      10515  ROW_BUFFER_MISS:      59261
 DBUS_CONGESTED:      27850
 WQ ROW_BUFFER_HIT:       4265  ROW_BUFFER_MISS:      19278  FULL:          0

 AVG_CONGESTED_CYCLE: 5

CPU 0 Branch Prediction Accuracy: 99.9029% MPKI: 0.19006 Average ROB Occupancy at Mispredict: 256.758

Branch types
NOT_BRANCH: 40217181 80.4344%
BRANCH_DIRECT_JUMP: 774600 1.5492%
BRANCH_INDIRECT: 108806 0.217612%
BRANCH_CONDITIONAL: 6379339 12.7587%
BRANCH_DIRECT_CALL: 1048812 2.09762%
BRANCH_INDIRECT_CALL: 211109 0.422218%
BRANCH_RETURN: 1259927 2.51985%
BRANCH_OTHER: 0 0%

