Initialize SIGNATURE TABLE
ST_SET: 1
ST_WAY: 256
ST_TAG_BIT: 16
ST_TAG_MASK: ffff

Initialize PATTERN TABLE
PT_SET: 512
PT_WAY: 4
SIG_DELTA_BIT: 7
C_SIG_BIT: 4
C_DELTA_BIT: 4

Initialize PREFETCH FILTER
FILTER_SET: 1024

*** ChampSim Multicore Out-of-Order Simulator ***

Warmup Instructions: 50000000
Simulation Instructions: 50000000
Number of CPUs: 1
LLC sets: 2048
LLC ways: 16
Off-chip DRAM Size: 4096 MB Channels: 1 Width: 64-bit Data Rate: 3200 MT/s

CPU 0 runs /home/ChampSim-master//dpc3_traces/server_017.champsimtrace.xz
L1I D-JOLT instruction prefetcher has been constructed!
CPU 0 L1D next line prefetcher
Heartbeat CPU 0 instructions: 10000001 cycles: 3622807 heartbeat IPC: 2.76029 cumulative IPC: 2.76029 (Simulation time: 0 hr 2 min 47 sec) 
Heartbeat CPU 0 instructions: 20000000 cycles: 7243394 heartbeat IPC: 2.76198 cumulative IPC: 2.76114 (Simulation time: 0 hr 5 min 36 sec) 
Heartbeat CPU 0 instructions: 30000002 cycles: 10870464 heartbeat IPC: 2.75705 cumulative IPC: 2.75977 (Simulation time: 0 hr 8 min 45 sec) 
Heartbeat CPU 0 instructions: 40000000 cycles: 14492885 heartbeat IPC: 2.76058 cumulative IPC: 2.75997 (Simulation time: 0 hr 11 min 45 sec) 
Heartbeat CPU 0 instructions: 50000001 cycles: 18126106 heartbeat IPC: 2.75238 cumulative IPC: 2.75845 (Simulation time: 0 hr 14 min 33 sec) 

Warmup complete CPU 0 instructions: 50000001 cycles: 18126106 (Simulation time: 0 hr 14 min 33 sec) 

Heartbeat CPU 0 instructions: 60000002 cycles: 35530361 heartbeat IPC: 0.574572 cumulative IPC: 0.574572 (Simulation time: 0 hr 17 min 53 sec) 
Heartbeat CPU 0 instructions: 70000002 cycles: 53023109 heartbeat IPC: 0.571665 cumulative IPC: 0.573115 (Simulation time: 0 hr 21 min 14 sec) 
Heartbeat CPU 0 instructions: 80000000 cycles: 70277609 heartbeat IPC: 0.579559 cumulative IPC: 0.575247 (Simulation time: 0 hr 24 min 32 sec) 
Heartbeat CPU 0 instructions: 90000002 cycles: 93417514 heartbeat IPC: 0.432154 cumulative IPC: 0.531269 (Simulation time: 0 hr 26 min 48 sec) 
Heartbeat CPU 0 instructions: 100000003 cycles: 113282857 heartbeat IPC: 0.503389 cumulative IPC: 0.525449 (Simulation time: 0 hr 27 min 36 sec) 
Finished CPU 0 instructions: 50000002 cycles: 95156751 cumulative IPC: 0.525449 (Simulation time: 0 hr 27 min 36 sec) 

ChampSim completed all CPUs

Region of Interest Statistics

CPU 0 cumulative IPC: 0.525449 instructions: 50000002 cycles: 95156751
L1D TOTAL     ACCESS:   18375680  HIT:   16210219  MISS:    2165461
L1D LOAD      ACCESS:    7024218  HIT:    6280539  MISS:     743679
L1D RFO       ACCESS:    5514625  HIT:    4655390  MISS:     859235
L1D PREFETCH  ACCESS:    5836837  HIT:    5274290  MISS:     562547
L1D WRITEBACK ACCESS:          0  HIT:          0  MISS:          0
L1D PREFETCH  REQUESTED:    7061665  ISSUED:    6872488  USEFUL:     200246  USELESS:     362362
L1D AVERAGE MISS LATENCY: 176.864 cycles
L1I TOTAL     ACCESS:   17586770  HIT:   14591128  MISS:    2995642
L1I LOAD      ACCESS:    9906292  HIT:    9869868  MISS:      36424
L1I RFO       ACCESS:          0  HIT:          0  MISS:          0
L1I PREFETCH  ACCESS:    7680478  HIT:    4721260  MISS:    2959218
L1I WRITEBACK ACCESS:          0  HIT:          0  MISS:          0
L1I PREFETCH  REQUESTED:    8218231  ISSUED:    8171825  USEFUL:    2425950  USELESS:     533277
L1I AVERAGE MISS LATENCY: 18.2383 cycles
L2C TOTAL     ACCESS:    7585584  HIT:    5739680  MISS:    1845904
L2C LOAD      ACCESS:     571536  HIT:     241711  MISS:     329825
L2C RFO       ACCESS:     858713  HIT:      17808  MISS:     840905
L2C PREFETCH  ACCESS:    5032447  HIT:    4359310  MISS:     673137
L2C WRITEBACK ACCESS:    1122888  HIT:    1120851  MISS:       2037
L2C PREFETCH  REQUESTED:    4725059  ISSUED:    4720650  USEFUL:      20945  USELESS:     652878
L2C AVERAGE MISS LATENCY: 211.172 cycles
LLC TOTAL     ACCESS:    4184151  HIT:    2656498  MISS:    1527653
LLC LOAD      ACCESS:     329785  HIT:     174125  MISS:     155660
LLC RFO       ACCESS:     840902  HIT:     122085  MISS:     718817
LLC PREFETCH  ACCESS:    1951642  HIT:    1300578  MISS:     651064
LLC WRITEBACK ACCESS:    1061822  HIT:    1059710  MISS:       2112
LLC PREFETCH  REQUESTED:          0  ISSUED:          0  USEFUL:      48706  USELESS:     601363
LLC AVERAGE MISS LATENCY: 270.388 cycles
Major fault: 0 Minor fault: 24698
CPU 0 L1D next line prefetcher final stats

DRAM Statistics
 CHANNEL 0
 RQ ROW_BUFFER_HIT:     377046  ROW_BUFFER_MISS:    1148296
 DBUS_CONGESTED:    1476758
 WQ ROW_BUFFER_HIT:     245392  ROW_BUFFER_MISS:     633158  FULL:          0

 AVG_CONGESTED_CYCLE: 6

CPU 0 Branch Prediction Accuracy: 99.2833% MPKI: 1.20568 Average ROB Occupancy at Mispredict: 182.294

Branch types
NOT_BRANCH: 41588346 83.1767%
BRANCH_DIRECT_JUMP: 464501 0.929002%
BRANCH_INDIRECT: 45704 0.091408%
BRANCH_CONDITIONAL: 6147408 12.2948%
BRANCH_DIRECT_CALL: 675450 1.3509%
BRANCH_INDIRECT_CALL: 201532 0.403064%
BRANCH_RETURN: 876985 1.75397%
BRANCH_OTHER: 0 0%

