Initialize SIGNATURE TABLE
ST_SET: 1
ST_WAY: 256
ST_TAG_BIT: 16
ST_TAG_MASK: ffff

Initialize PATTERN TABLE
PT_SET: 512
PT_WAY: 4
SIG_DELTA_BIT: 7
C_SIG_BIT: 4
C_DELTA_BIT: 4

Initialize PREFETCH FILTER
FILTER_SET: 1024

*** ChampSim Multicore Out-of-Order Simulator ***

Warmup Instructions: 50000000
Simulation Instructions: 50000000
Number of CPUs: 1
LLC sets: 2048
LLC ways: 16
Off-chip DRAM Size: 4096 MB Channels: 1 Width: 64-bit Data Rate: 3200 MT/s

CPU 0 runs /home/ChampSim-master//dpc3_traces/server_036.champsimtrace.xz
CPU 0 L1D next line prefetcher
Heartbeat CPU 0 instructions: 10000000 cycles: 3459129 heartbeat IPC: 2.8909 cumulative IPC: 2.8909 (Simulation time: 0 hr 4 min 39 sec) 
Heartbeat CPU 0 instructions: 20000000 cycles: 6924917 heartbeat IPC: 2.88535 cumulative IPC: 2.88812 (Simulation time: 0 hr 9 min 22 sec) 
Heartbeat CPU 0 instructions: 30000003 cycles: 10433758 heartbeat IPC: 2.84994 cumulative IPC: 2.87528 (Simulation time: 0 hr 14 min 10 sec) 
Heartbeat CPU 0 instructions: 40000000 cycles: 13896259 heartbeat IPC: 2.88808 cumulative IPC: 2.87847 (Simulation time: 0 hr 20 min 25 sec) 
Heartbeat CPU 0 instructions: 50000002 cycles: 17357961 heartbeat IPC: 2.88875 cumulative IPC: 2.88052 (Simulation time: 0 hr 26 min 48 sec) 

Warmup complete CPU 0 instructions: 50000002 cycles: 17357961 (Simulation time: 0 hr 26 min 48 sec) 

Heartbeat CPU 0 instructions: 60000000 cycles: 22943441 heartbeat IPC: 1.79036 cumulative IPC: 1.79036 (Simulation time: 0 hr 33 min 34 sec) 
Heartbeat CPU 0 instructions: 70000001 cycles: 28496571 heartbeat IPC: 1.80079 cumulative IPC: 1.79556 (Simulation time: 0 hr 39 min 25 sec) 
Heartbeat CPU 0 instructions: 80000001 cycles: 34074817 heartbeat IPC: 1.79268 cumulative IPC: 1.7946 (Simulation time: 0 hr 45 min 0 sec) 
Heartbeat CPU 0 instructions: 90000002 cycles: 39628299 heartbeat IPC: 1.80067 cumulative IPC: 1.79611 (Simulation time: 0 hr 50 min 29 sec) 
Heartbeat CPU 0 instructions: 100000001 cycles: 45174936 heartbeat IPC: 1.80289 cumulative IPC: 1.79746 (Simulation time: 0 hr 54 min 20 sec) 
Finished CPU 0 instructions: 50000003 cycles: 27816976 cumulative IPC: 1.79746 (Simulation time: 0 hr 54 min 20 sec) 

ChampSim completed all CPUs

Region of Interest Statistics

CPU 0 cumulative IPC: 1.79746 instructions: 50000003 cycles: 27816976
L1D TOTAL     ACCESS:   20498128  HIT:   20437897  MISS:      60231
L1D LOAD      ACCESS:    6677037  HIT:    6642193  MISS:      34844
L1D RFO       ACCESS:    7343950  HIT:    7336727  MISS:       7223
L1D PREFETCH  ACCESS:    6477141  HIT:    6458977  MISS:      18164
L1D WRITEBACK ACCESS:          0  HIT:          0  MISS:          0
L1D PREFETCH  REQUESTED:    6678031  ISSUED:    6508329  USEFUL:       5464  USELESS:      12701
L1D AVERAGE MISS LATENCY: 18.0845 cycles
L1I TOTAL     ACCESS:   20160154  HIT:   14169787  MISS:    5990367
L1I LOAD      ACCESS:    9037104  HIT:    9036375  MISS:        729
L1I RFO       ACCESS:          0  HIT:          0  MISS:          0
L1I PREFETCH  ACCESS:   11123050  HIT:    5133412  MISS:    5989638
L1I WRITEBACK ACCESS:          0  HIT:          0  MISS:          0
L1I PREFETCH  REQUESTED:   11123737  ISSUED:   11123493  USEFUL:    4079753  USELESS:    1909838
L1I AVERAGE MISS LATENCY: 14.4026 cycles
L2C TOTAL     ACCESS:    8232207  HIT:    8229619  MISS:       2588
L2C LOAD      ACCESS:      35137  HIT:      34791  MISS:        346
L2C RFO       ACCESS:       7216  HIT:       7155  MISS:         61
L2C PREFETCH  ACCESS:    8174223  HIT:    8172089  MISS:       2134
L2C WRITEBACK ACCESS:      15631  HIT:      15584  MISS:         47
L2C PREFETCH  REQUESTED:    5245268  ISSUED:    5244377  USEFUL:        142  USELESS:       1303
L2C AVERAGE MISS LATENCY: 127.985 cycles
LLC TOTAL     ACCESS:    1126706  HIT:    1123378  MISS:       3328
LLC LOAD      ACCESS:        346  HIT:        124  MISS:        222
LLC RFO       ACCESS:         61  HIT:         30  MISS:         31
LLC PREFETCH  ACCESS:    1125152  HIT:    1122085  MISS:       3067
LLC WRITEBACK ACCESS:       1147  HIT:       1139  MISS:          8
LLC PREFETCH  REQUESTED:          0  ISSUED:          0  USEFUL:         40  USELESS:       1163
LLC AVERAGE MISS LATENCY: 226.535 cycles
Major fault: 0 Minor fault: 1943
CPU 0 L1D next line prefetcher final stats

DRAM Statistics
 CHANNEL 0
 RQ ROW_BUFFER_HIT:        493  ROW_BUFFER_MISS:       2827
 DBUS_CONGESTED:       1164
 WQ ROW_BUFFER_HIT:        242  ROW_BUFFER_MISS:       1710  FULL:          0

 AVG_CONGESTED_CYCLE: 6

CPU 0 Branch Prediction Accuracy: 99.8717% MPKI: 0.21174 Average ROB Occupancy at Mispredict: 224.39

Branch types
NOT_BRANCH: 41748444 83.4969%
BRANCH_DIRECT_JUMP: 468564 0.937128%
BRANCH_INDIRECT: 0 0%
BRANCH_CONDITIONAL: 5599754 11.1995%
BRANCH_DIRECT_CALL: 885105 1.77021%
BRANCH_INDIRECT_CALL: 206338 0.412676%
BRANCH_RETURN: 1091468 2.18294%
BRANCH_OTHER: 0 0%

