Initialize SIGNATURE TABLE
ST_SET: 1
ST_WAY: 256
ST_TAG_BIT: 16
ST_TAG_MASK: ffff

Initialize PATTERN TABLE
PT_SET: 512
PT_WAY: 4
SIG_DELTA_BIT: 7
C_SIG_BIT: 4
C_DELTA_BIT: 4

Initialize PREFETCH FILTER
FILTER_SET: 1024

*** ChampSim Multicore Out-of-Order Simulator ***

Warmup Instructions: 50000000
Simulation Instructions: 50000000
Number of CPUs: 1
LLC sets: 2048
LLC ways: 16
Off-chip DRAM Size: 4096 MB Channels: 1 Width: 64-bit Data Rate: 3200 MT/s

CPU 0 runs /home/ChampSim-master//dpc3_traces/server_034.champsimtrace.xz
L1I D-JOLT instruction prefetcher has been constructed!
CPU 0 L1D next line prefetcher
Heartbeat CPU 0 instructions: 10000000 cycles: 3331798 heartbeat IPC: 3.00138 cumulative IPC: 3.00138 (Simulation time: 0 hr 2 min 56 sec) 
Heartbeat CPU 0 instructions: 20000002 cycles: 6656174 heartbeat IPC: 3.00808 cumulative IPC: 3.00473 (Simulation time: 0 hr 5 min 51 sec) 
Heartbeat CPU 0 instructions: 30000003 cycles: 9988567 heartbeat IPC: 3.00085 cumulative IPC: 3.00343 (Simulation time: 0 hr 8 min 49 sec) 
Heartbeat CPU 0 instructions: 40000001 cycles: 13319389 heartbeat IPC: 3.00226 cumulative IPC: 3.00314 (Simulation time: 0 hr 11 min 57 sec) 
Heartbeat CPU 0 instructions: 50000000 cycles: 16649519 heartbeat IPC: 3.00289 cumulative IPC: 3.00309 (Simulation time: 0 hr 15 min 14 sec) 

Warmup complete CPU 0 instructions: 50000002 cycles: 16649520 (Simulation time: 0 hr 15 min 14 sec) 

Heartbeat CPU 0 instructions: 60000002 cycles: 22603618 heartbeat IPC: 1.67952 cumulative IPC: 1.67952 (Simulation time: 0 hr 18 min 16 sec) 
Heartbeat CPU 0 instructions: 70000003 cycles: 28978241 heartbeat IPC: 1.56872 cumulative IPC: 1.62223 (Simulation time: 0 hr 21 min 19 sec) 
Heartbeat CPU 0 instructions: 80000002 cycles: 35011969 heartbeat IPC: 1.65735 cumulative IPC: 1.63377 (Simulation time: 0 hr 24 min 14 sec) 
Heartbeat CPU 0 instructions: 90000002 cycles: 41044019 heartbeat IPC: 1.65781 cumulative IPC: 1.63971 (Simulation time: 0 hr 26 min 42 sec) 
Heartbeat CPU 0 instructions: 100000002 cycles: 47050005 heartbeat IPC: 1.66501 cumulative IPC: 1.64471 (Simulation time: 0 hr 27 min 46 sec) 
Finished CPU 0 instructions: 50000000 cycles: 30400485 cumulative IPC: 1.64471 (Simulation time: 0 hr 27 min 46 sec) 

ChampSim completed all CPUs

Region of Interest Statistics

CPU 0 cumulative IPC: 1.64471 instructions: 50000000 cycles: 30400485
L1D TOTAL     ACCESS:   18232295  HIT:   16808271  MISS:    1424024
L1D LOAD      ACCESS:    6124867  HIT:    5468611  MISS:     656256
L1D RFO       ACCESS:    6163403  HIT:    6020860  MISS:     142543
L1D PREFETCH  ACCESS:    5944025  HIT:    5318800  MISS:     625225
L1D WRITEBACK ACCESS:          0  HIT:          0  MISS:          0
L1D PREFETCH  REQUESTED:    6159611  ISSUED:    6069664  USEFUL:     140809  USELESS:     484385
L1D AVERAGE MISS LATENCY: 17.9171 cycles
L1I TOTAL     ACCESS:   19145079  HIT:   15152906  MISS:    3992173
L1I LOAD      ACCESS:    9670190  HIT:    9619597  MISS:      50593
L1I RFO       ACCESS:          0  HIT:          0  MISS:          0
L1I PREFETCH  ACCESS:    9474889  HIT:    5533309  MISS:    3941580
L1I WRITEBACK ACCESS:          0  HIT:          0  MISS:          0
L1I PREFETCH  REQUESTED:   10208125  ISSUED:    9917588  USEFUL:    3325564  USELESS:     615983
L1I AVERAGE MISS LATENCY: 15.1541 cycles
L2C TOTAL     ACCESS:    7458107  HIT:    7324857  MISS:     133250
L2C LOAD      ACCESS:     697811  HIT:     655388  MISS:      42423
L2C RFO       ACCESS:     140721  HIT:     130414  MISS:      10307
L2C PREFETCH  ACCESS:    6268807  HIT:    6190047  MISS:      78760
L2C WRITEBACK ACCESS:     350768  HIT:     349008  MISS:       1760
L2C PREFETCH  REQUESTED:    5846077  ISSUED:    5803432  USEFUL:       3097  USELESS:      75087
L2C AVERAGE MISS LATENCY: 40.6702 cycles
LLC TOTAL     ACCESS:    2197488  HIT:    2180553  MISS:      16935
LLC LOAD      ACCESS:      42330  HIT:      39326  MISS:       3004
LLC RFO       ACCESS:      10307  HIT:       9897  MISS:        410
LLC PREFETCH  ACCESS:    2101505  HIT:    2088085  MISS:      13420
LLC WRITEBACK ACCESS:      43346  HIT:      43245  MISS:        101
LLC PREFETCH  REQUESTED:          0  ISSUED:          0  USEFUL:       3325  USELESS:       7608
LLC AVERAGE MISS LATENCY: 165.615 cycles
Major fault: 0 Minor fault: 1174
CPU 0 L1D next line prefetcher final stats

DRAM Statistics
 CHANNEL 0
 RQ ROW_BUFFER_HIT:       4099  ROW_BUFFER_MISS:      12731
 DBUS_CONGESTED:       7149
 WQ ROW_BUFFER_HIT:       1317  ROW_BUFFER_MISS:       3909  FULL:          0

 AVG_CONGESTED_CYCLE: 5

CPU 0 Branch Prediction Accuracy: 99.926% MPKI: 0.14472 Average ROB Occupancy at Mispredict: 266.181

Branch types
NOT_BRANCH: 40221093 80.4422%
BRANCH_DIRECT_JUMP: 771319 1.54264%
BRANCH_INDIRECT: 108663 0.217326%
BRANCH_CONDITIONAL: 6375046 12.7501%
BRANCH_DIRECT_CALL: 1049638 2.09928%
BRANCH_INDIRECT_CALL: 212283 0.424566%
BRANCH_RETURN: 1261926 2.52385%
BRANCH_OTHER: 0 0%

