Initialize SIGNATURE TABLE
ST_SET: 1
ST_WAY: 256
ST_TAG_BIT: 16
ST_TAG_MASK: ffff

Initialize PATTERN TABLE
PT_SET: 512
PT_WAY: 4
SIG_DELTA_BIT: 7
C_SIG_BIT: 4
C_DELTA_BIT: 4

Initialize PREFETCH FILTER
FILTER_SET: 1024

*** ChampSim Multicore Out-of-Order Simulator ***

Warmup Instructions: 50000000
Simulation Instructions: 50000000
Number of CPUs: 1
LLC sets: 2048
LLC ways: 16
Off-chip DRAM Size: 4096 MB Channels: 1 Width: 64-bit Data Rate: 3200 MT/s

CPU 0 runs /home/ChampSim-master//dpc3_traces/server_023.champsimtrace.xz
L1I D-JOLT instruction prefetcher has been constructed!
CPU 0 L1D next line prefetcher
Heartbeat CPU 0 instructions: 10000000 cycles: 3497629 heartbeat IPC: 2.85908 cumulative IPC: 2.85908 (Simulation time: 0 hr 2 min 47 sec) 
Heartbeat CPU 0 instructions: 20000000 cycles: 6994204 heartbeat IPC: 2.85994 cumulative IPC: 2.85951 (Simulation time: 0 hr 5 min 30 sec) 
Heartbeat CPU 0 instructions: 30000001 cycles: 10484335 heartbeat IPC: 2.86522 cumulative IPC: 2.86141 (Simulation time: 0 hr 8 min 21 sec) 
Heartbeat CPU 0 instructions: 40000003 cycles: 13980620 heartbeat IPC: 2.86018 cumulative IPC: 2.8611 (Simulation time: 0 hr 10 min 54 sec) 
Heartbeat CPU 0 instructions: 50000001 cycles: 17478906 heartbeat IPC: 2.85854 cumulative IPC: 2.86059 (Simulation time: 0 hr 13 min 27 sec) 

Warmup complete CPU 0 instructions: 50000001 cycles: 17478906 (Simulation time: 0 hr 13 min 27 sec) 

Heartbeat CPU 0 instructions: 60000002 cycles: 24212958 heartbeat IPC: 1.48499 cumulative IPC: 1.48499 (Simulation time: 0 hr 15 min 59 sec) 
Heartbeat CPU 0 instructions: 70000002 cycles: 31187764 heartbeat IPC: 1.43373 cumulative IPC: 1.45891 (Simulation time: 0 hr 18 min 27 sec) 
Heartbeat CPU 0 instructions: 80000000 cycles: 38041768 heartbeat IPC: 1.459 cumulative IPC: 1.45894 (Simulation time: 0 hr 20 min 46 sec) 
Heartbeat CPU 0 instructions: 90000000 cycles: 44959149 heartbeat IPC: 1.44563 cumulative IPC: 1.45559 (Simulation time: 0 hr 22 min 47 sec) 
Heartbeat CPU 0 instructions: 100000001 cycles: 51784162 heartbeat IPC: 1.4652 cumulative IPC: 1.4575 (Simulation time: 0 hr 24 min 13 sec) 
Finished CPU 0 instructions: 50000000 cycles: 34305256 cumulative IPC: 1.4575 (Simulation time: 0 hr 24 min 13 sec) 

ChampSim completed all CPUs

Region of Interest Statistics

CPU 0 cumulative IPC: 1.4575 instructions: 50000000 cycles: 34305256
L1D TOTAL     ACCESS:   19345615  HIT:   17878824  MISS:    1466791
L1D LOAD      ACCESS:    6841447  HIT:    6181133  MISS:     660314
L1D RFO       ACCESS:    5983922  HIT:    5722652  MISS:     261270
L1D PREFETCH  ACCESS:    6520246  HIT:    5975039  MISS:     545207
L1D WRITEBACK ACCESS:          0  HIT:          0  MISS:          0
L1D PREFETCH  REQUESTED:    6892480  ISSUED:    6771309  USEFUL:     130594  USELESS:     414620
L1D AVERAGE MISS LATENCY: 24.6183 cycles
L1I TOTAL     ACCESS:   14024779  HIT:   11246539  MISS:    2778240
L1I LOAD      ACCESS:    9439854  HIT:    9389167  MISS:      50687
L1I RFO       ACCESS:          0  HIT:          0  MISS:          0
L1I PREFETCH  ACCESS:    4584925  HIT:    1857372  MISS:    2727553
L1I WRITEBACK ACCESS:          0  HIT:          0  MISS:          0
L1I PREFETCH  REQUESTED:    4760299  ISSUED:    4729983  USEFUL:    2384409  USELESS:     343155
L1I AVERAGE MISS LATENCY: 19.3642 cycles
L2C TOTAL     ACCESS:    5932328  HIT:    5198116  MISS:     734212
L2C LOAD      ACCESS:     638932  HIT:     509997  MISS:     128935
L2C RFO       ACCESS:     259433  HIT:     181285  MISS:      78148
L2C PREFETCH  ACCESS:    4534719  HIT:    4012338  MISS:     522381
L2C WRITEBACK ACCESS:     499244  HIT:     494496  MISS:       4748
L2C PREFETCH  REQUESTED:    3896354  ISSUED:    3891635  USEFUL:      18012  USELESS:     504961
L2C AVERAGE MISS LATENCY: 40.7735 cycles
LLC TOTAL     ACCESS:    1956068  HIT:    1902022  MISS:      54046
LLC LOAD      ACCESS:     128783  HIT:     122034  MISS:       6749
LLC RFO       ACCESS:      78144  HIT:      60180  MISS:      17964
LLC PREFETCH  ACCESS:    1613144  HIT:    1584136  MISS:      29008
LLC WRITEBACK ACCESS:     135997  HIT:     135672  MISS:        325
LLC PREFETCH  REQUESTED:          0  ISSUED:          0  USEFUL:       2805  USELESS:      26269
LLC AVERAGE MISS LATENCY: 179.839 cycles
Major fault: 0 Minor fault: 2775
CPU 0 L1D next line prefetcher final stats

DRAM Statistics
 CHANNEL 0
 RQ ROW_BUFFER_HIT:      15475  ROW_BUFFER_MISS:      38234
 DBUS_CONGESTED:      31603
 WQ ROW_BUFFER_HIT:       2646  ROW_BUFFER_MISS:      19233  FULL:          0

 AVG_CONGESTED_CYCLE: 6

CPU 0 Branch Prediction Accuracy: 99.6798% MPKI: 0.58608 Average ROB Occupancy at Mispredict: 146.502

Branch types
NOT_BRANCH: 40848355 81.6967%
BRANCH_DIRECT_JUMP: 548373 1.09675%
BRANCH_INDIRECT: 189802 0.379604%
BRANCH_CONDITIONAL: 6372772 12.7455%
BRANCH_DIRECT_CALL: 862207 1.72441%
BRANCH_INDIRECT_CALL: 158149 0.316298%
BRANCH_RETURN: 1020345 2.04069%
BRANCH_OTHER: 0 0%

