Initialize SIGNATURE TABLE
ST_SET: 1
ST_WAY: 256
ST_TAG_BIT: 16
ST_TAG_MASK: ffff

Initialize PATTERN TABLE
PT_SET: 512
PT_WAY: 4
SIG_DELTA_BIT: 7
C_SIG_BIT: 4
C_DELTA_BIT: 4

Initialize PREFETCH FILTER
FILTER_SET: 1024

*** ChampSim Multicore Out-of-Order Simulator ***

Warmup Instructions: 50000000
Simulation Instructions: 50000000
Number of CPUs: 1
LLC sets: 2048
LLC ways: 16
Off-chip DRAM Size: 4096 MB Channels: 1 Width: 64-bit Data Rate: 3200 MT/s

CPU 0 runs /home/ChampSim-master//dpc3_traces/server_033.champsimtrace.xz
CPU 0 L1D next line prefetcher
Heartbeat CPU 0 instructions: 10000001 cycles: 3341250 heartbeat IPC: 2.99289 cumulative IPC: 2.99289 (Simulation time: 0 hr 5 min 15 sec) 
Heartbeat CPU 0 instructions: 20000002 cycles: 6680757 heartbeat IPC: 2.99445 cumulative IPC: 2.99367 (Simulation time: 0 hr 10 min 8 sec) 
Heartbeat CPU 0 instructions: 30000001 cycles: 10010234 heartbeat IPC: 3.00347 cumulative IPC: 2.99693 (Simulation time: 0 hr 15 min 12 sec) 
Heartbeat CPU 0 instructions: 40000000 cycles: 13348533 heartbeat IPC: 2.99554 cumulative IPC: 2.99658 (Simulation time: 0 hr 20 min 22 sec) 
Heartbeat CPU 0 instructions: 50000000 cycles: 16685911 heartbeat IPC: 2.99636 cumulative IPC: 2.99654 (Simulation time: 0 hr 25 min 30 sec) 

Warmup complete CPU 0 instructions: 50000004 cycles: 16685912 (Simulation time: 0 hr 25 min 30 sec) 

Heartbeat CPU 0 instructions: 60000000 cycles: 23207989 heartbeat IPC: 1.53325 cumulative IPC: 1.53325 (Simulation time: 0 hr 31 min 23 sec) 
Heartbeat CPU 0 instructions: 70000000 cycles: 29697877 heartbeat IPC: 1.54086 cumulative IPC: 1.53705 (Simulation time: 0 hr 37 min 5 sec) 
Heartbeat CPU 0 instructions: 80000000 cycles: 37035724 heartbeat IPC: 1.3628 cumulative IPC: 1.47421 (Simulation time: 0 hr 42 min 51 sec) 
Heartbeat CPU 0 instructions: 90000003 cycles: 43606235 heartbeat IPC: 1.52195 cumulative IPC: 1.48587 (Simulation time: 0 hr 48 min 27 sec) 
Heartbeat CPU 0 instructions: 100000003 cycles: 50113729 heartbeat IPC: 1.53669 cumulative IPC: 1.49576 (Simulation time: 0 hr 53 min 19 sec) 
Finished CPU 0 instructions: 50000003 cycles: 33427818 cumulative IPC: 1.49576 (Simulation time: 0 hr 53 min 19 sec) 

ChampSim completed all CPUs

Region of Interest Statistics

CPU 0 cumulative IPC: 1.49576 instructions: 50000003 cycles: 33427818
L1D TOTAL     ACCESS:   18227589  HIT:   16745268  MISS:    1482321
L1D LOAD      ACCESS:    6138954  HIT:    5455508  MISS:     683446
L1D RFO       ACCESS:    6163845  HIT:    6014548  MISS:     149297
L1D PREFETCH  ACCESS:    5924790  HIT:    5275212  MISS:     649578
L1D WRITEBACK ACCESS:          0  HIT:          0  MISS:          0
L1D PREFETCH  REQUESTED:    6180473  ISSUED:    6060460  USEFUL:     141320  USELESS:     508264
L1D AVERAGE MISS LATENCY: 23.7813 cycles
L1I TOTAL     ACCESS:   22127141  HIT:   16389730  MISS:    5737411
L1I LOAD      ACCESS:    9769717  HIT:    9760152  MISS:       9565
L1I RFO       ACCESS:          0  HIT:          0  MISS:          0
L1I PREFETCH  ACCESS:   12357424  HIT:    6629578  MISS:    5727846
L1I WRITEBACK ACCESS:          0  HIT:          0  MISS:          0
L1I PREFETCH  REQUESTED:   12388854  ISSUED:   12362965  USEFUL:    3499827  USELESS:    2227981
L1I AVERAGE MISS LATENCY: 14.8509 cycles
L2C TOTAL     ACCESS:    9564474  HIT:    9267726  MISS:     296748
L2C LOAD      ACCESS:     682173  HIT:     563091  MISS:     119082
L2C RFO       ACCESS:     147865  HIT:     127946  MISS:      19919
L2C PREFETCH  ACCESS:    8367991  HIT:    8211934  MISS:     156057
L2C WRITEBACK ACCESS:     366445  HIT:     364755  MISS:       1690
L2C PREFETCH  REQUESTED:    5236291  ISSUED:    5228872  USEFUL:       8840  USELESS:     146929
L2C AVERAGE MISS LATENCY: 49.8879 cycles
LLC TOTAL     ACCESS:    1723984  HIT:    1670930  MISS:      53054
LLC LOAD      ACCESS:     119068  HIT:     105416  MISS:      13652
LLC RFO       ACCESS:      19915  HIT:      16608  MISS:       3307
LLC PREFETCH  ACCESS:    1481935  HIT:    1446048  MISS:      35887
LLC WRITEBACK ACCESS:     103066  HIT:     102858  MISS:        208
LLC PREFETCH  REQUESTED:          0  ISSUED:          0  USEFUL:       4854  USELESS:      30400
LLC AVERAGE MISS LATENCY: 173.477 cycles
Major fault: 0 Minor fault: 2495
CPU 0 L1D next line prefetcher final stats

DRAM Statistics
 CHANNEL 0
 RQ ROW_BUFFER_HIT:       7766  ROW_BUFFER_MISS:      45077
 DBUS_CONGESTED:      19709
 WQ ROW_BUFFER_HIT:       3545  ROW_BUFFER_MISS:      15630  FULL:          0

 AVG_CONGESTED_CYCLE: 5

CPU 0 Branch Prediction Accuracy: 99.9029% MPKI: 0.19006 Average ROB Occupancy at Mispredict: 252.048

Branch types
NOT_BRANCH: 40217101 80.4342%
BRANCH_DIRECT_JUMP: 774599 1.5492%
BRANCH_INDIRECT: 108806 0.217612%
BRANCH_CONDITIONAL: 6379330 12.7587%
BRANCH_DIRECT_CALL: 1048808 2.09762%
BRANCH_INDIRECT_CALL: 211109 0.422218%
BRANCH_RETURN: 1259925 2.51985%
BRANCH_OTHER: 0 0%

