Initialize SIGNATURE TABLE
ST_SET: 1
ST_WAY: 256
ST_TAG_BIT: 16
ST_TAG_MASK: ffff

Initialize PATTERN TABLE
PT_SET: 512
PT_WAY: 4
SIG_DELTA_BIT: 7
C_SIG_BIT: 4
C_DELTA_BIT: 4

Initialize PREFETCH FILTER
FILTER_SET: 1024

*** ChampSim Multicore Out-of-Order Simulator ***

Warmup Instructions: 50000000
Simulation Instructions: 50000000
Number of CPUs: 1
LLC sets: 2048
LLC ways: 16
Off-chip DRAM Size: 4096 MB Channels: 1 Width: 64-bit Data Rate: 3200 MT/s

CPU 0 runs /home/ChampSim-master//dpc3_traces/server_003.champsimtrace.xz
L1I D-JOLT instruction prefetcher has been constructed!
CPU 0 L1D next line prefetcher
Heartbeat CPU 0 instructions: 10000002 cycles: 3218618 heartbeat IPC: 3.10692 cumulative IPC: 3.10692 (Simulation time: 0 hr 2 min 45 sec) 
Heartbeat CPU 0 instructions: 20000000 cycles: 6534443 heartbeat IPC: 3.01584 cumulative IPC: 3.0607 (Simulation time: 0 hr 5 min 32 sec) 
Heartbeat CPU 0 instructions: 30000000 cycles: 9740075 heartbeat IPC: 3.11951 cumulative IPC: 3.08006 (Simulation time: 0 hr 8 min 22 sec) 
Heartbeat CPU 0 instructions: 40000001 cycles: 13154661 heartbeat IPC: 2.92861 cumulative IPC: 3.04075 (Simulation time: 0 hr 11 min 12 sec) 
Heartbeat CPU 0 instructions: 50000003 cycles: 16873678 heartbeat IPC: 2.68888 cumulative IPC: 2.9632 (Simulation time: 0 hr 13 min 56 sec) 

Warmup complete CPU 0 instructions: 50000003 cycles: 16873678 (Simulation time: 0 hr 13 min 56 sec) 

Heartbeat CPU 0 instructions: 60000000 cycles: 26149929 heartbeat IPC: 1.07802 cumulative IPC: 1.07802 (Simulation time: 0 hr 16 min 22 sec) 
Heartbeat CPU 0 instructions: 70000003 cycles: 35363643 heartbeat IPC: 1.08534 cumulative IPC: 1.08167 (Simulation time: 0 hr 18 min 29 sec) 
Heartbeat CPU 0 instructions: 80000000 cycles: 45563451 heartbeat IPC: 0.98041 cumulative IPC: 1.04567 (Simulation time: 0 hr 20 min 43 sec) 
Heartbeat CPU 0 instructions: 90000001 cycles: 55782174 heartbeat IPC: 0.978596 cumulative IPC: 1.02805 (Simulation time: 0 hr 22 min 45 sec) 
Heartbeat CPU 0 instructions: 100000000 cycles: 66487233 heartbeat IPC: 0.934138 cumulative IPC: 1.00779 (Simulation time: 0 hr 24 min 39 sec) 
Finished CPU 0 instructions: 50000001 cycles: 49613556 cumulative IPC: 1.00779 (Simulation time: 0 hr 24 min 39 sec) 

ChampSim completed all CPUs

Region of Interest Statistics

CPU 0 cumulative IPC: 1.00779 instructions: 50000001 cycles: 49613556
L1D TOTAL     ACCESS:   20005105  HIT:   18864235  MISS:    1140870
L1D LOAD      ACCESS:    7856323  HIT:    7326617  MISS:     529706
L1D RFO       ACCESS:    4552624  HIT:    4435264  MISS:     117360
L1D PREFETCH  ACCESS:    7596158  HIT:    7102354  MISS:     493804
L1D WRITEBACK ACCESS:          0  HIT:          0  MISS:          0
L1D PREFETCH  REQUESTED:    7916060  ISSUED:    7824538  USEFUL:     155584  USELESS:     338179
L1D AVERAGE MISS LATENCY: 54.7379 cycles
L1I TOTAL     ACCESS:   16778066  HIT:   15182037  MISS:    1596029
L1I LOAD      ACCESS:    9306691  HIT:    9135238  MISS:     171453
L1I RFO       ACCESS:          0  HIT:          0  MISS:          0
L1I PREFETCH  ACCESS:    7471375  HIT:    6046799  MISS:    1424576
L1I WRITEBACK ACCESS:          0  HIT:          0  MISS:          0
L1I PREFETCH  REQUESTED:    8890038  ISSUED:    7833492  USEFUL:     879769  USELESS:     544973
L1I AVERAGE MISS LATENCY: 32.6892 cycles
L2C TOTAL     ACCESS:    3746092  HIT:    2758544  MISS:     987548
L2C LOAD      ACCESS:     638285  HIT:     361335  MISS:     276950
L2C RFO       ACCESS:     114649  HIT:      40439  MISS:      74210
L2C PREFETCH  ACCESS:    2708899  HIT:    2073670  MISS:     635229
L2C WRITEBACK ACCESS:     284259  HIT:     283100  MISS:       1159
L2C PREFETCH  REQUESTED:    2476508  ISSUED:    2473442  USEFUL:      35794  USELESS:     597088
L2C AVERAGE MISS LATENCY: 77.8646 cycles
LLC TOTAL     ACCESS:    1884573  HIT:    1514573  MISS:     370000
LLC LOAD      ACCESS:     276684  HIT:     202002  MISS:      74682
LLC RFO       ACCESS:      74209  HIT:      31525  MISS:      42684
LLC PREFETCH  ACCESS:    1368508  HIT:    1117106  MISS:     251402
LLC WRITEBACK ACCESS:     165172  HIT:     163940  MISS:       1232
LLC PREFETCH  REQUESTED:          0  ISSUED:          0  USEFUL:      39276  USELESS:     203297
LLC AVERAGE MISS LATENCY: 185.025 cycles
Major fault: 0 Minor fault: 7777
CPU 0 L1D next line prefetcher final stats

DRAM Statistics
 CHANNEL 0
 RQ ROW_BUFFER_HIT:      76842  ROW_BUFFER_MISS:     291854
 DBUS_CONGESTED:     177684
 WQ ROW_BUFFER_HIT:      25189  ROW_BUFFER_MISS:      77397  FULL:          0

 AVG_CONGESTED_CYCLE: 5

CPU 0 Branch Prediction Accuracy: 95.439% MPKI: 9.02702 Average ROB Occupancy at Mispredict: 67.2659

Branch types
NOT_BRANCH: 40104079 80.2082%
BRANCH_DIRECT_JUMP: 497928 0.995856%
BRANCH_INDIRECT: 130587 0.261174%
BRANCH_CONDITIONAL: 7219015 14.438%
BRANCH_DIRECT_CALL: 625807 1.25161%
BRANCH_INDIRECT_CALL: 389787 0.779574%
BRANCH_RETURN: 1032747 2.06549%
BRANCH_OTHER: 0 0%

