Initialize SIGNATURE TABLE
ST_SET: 1
ST_WAY: 256
ST_TAG_BIT: 16
ST_TAG_MASK: ffff

Initialize PATTERN TABLE
PT_SET: 512
PT_WAY: 4
SIG_DELTA_BIT: 7
C_SIG_BIT: 4
C_DELTA_BIT: 4

Initialize PREFETCH FILTER
FILTER_SET: 1024

*** ChampSim Multicore Out-of-Order Simulator ***

Warmup Instructions: 50000000
Simulation Instructions: 50000000
Number of CPUs: 1
LLC sets: 2048
LLC ways: 16
Off-chip DRAM Size: 4096 MB Channels: 1 Width: 64-bit Data Rate: 3200 MT/s

CPU 0 runs /home/ChampSim-master//dpc3_traces/server_026.champsimtrace.xz
L1I D-JOLT instruction prefetcher has been constructed!
CPU 0 L1D next line prefetcher
Heartbeat CPU 0 instructions: 10000000 cycles: 3522556 heartbeat IPC: 2.83885 cumulative IPC: 2.83885 (Simulation time: 0 hr 3 min 11 sec) 
Heartbeat CPU 0 instructions: 20000002 cycles: 7051047 heartbeat IPC: 2.83407 cumulative IPC: 2.83646 (Simulation time: 0 hr 6 min 30 sec) 
Heartbeat CPU 0 instructions: 30000000 cycles: 10569668 heartbeat IPC: 2.84202 cumulative IPC: 2.83831 (Simulation time: 0 hr 9 min 16 sec) 
Heartbeat CPU 0 instructions: 40000003 cycles: 14097599 heartbeat IPC: 2.83452 cumulative IPC: 2.83736 (Simulation time: 0 hr 12 min 8 sec) 
Heartbeat CPU 0 instructions: 50000000 cycles: 17618286 heartbeat IPC: 2.84035 cumulative IPC: 2.83796 (Simulation time: 0 hr 15 min 8 sec) 

Warmup complete CPU 0 instructions: 50000004 cycles: 17618287 (Simulation time: 0 hr 15 min 8 sec) 

*** Reached end of trace for Core: 0 Repeating trace: /home/ChampSim-master//dpc3_traces/server_026.champsimtrace.xz
Heartbeat CPU 0 instructions: 60000000 cycles: 24540754 heartbeat IPC: 1.44457 cumulative IPC: 1.44457 (Simulation time: 0 hr 17 min 45 sec) 
Heartbeat CPU 0 instructions: 70000003 cycles: 31349768 heartbeat IPC: 1.46864 cumulative IPC: 1.45651 (Simulation time: 0 hr 20 min 18 sec) 
Heartbeat CPU 0 instructions: 80000002 cycles: 38252337 heartbeat IPC: 1.44874 cumulative IPC: 1.45391 (Simulation time: 0 hr 22 min 52 sec) 
Heartbeat CPU 0 instructions: 90000002 cycles: 45058774 heartbeat IPC: 1.4692 cumulative IPC: 1.4577 (Simulation time: 0 hr 25 min 1 sec) 
Heartbeat CPU 0 instructions: 100000000 cycles: 51940688 heartbeat IPC: 1.45308 cumulative IPC: 1.45677 (Simulation time: 0 hr 26 min 21 sec) 
Finished CPU 0 instructions: 50000000 cycles: 34322402 cumulative IPC: 1.45677 (Simulation time: 0 hr 26 min 21 sec) 

ChampSim completed all CPUs

Region of Interest Statistics

CPU 0 cumulative IPC: 1.45677 instructions: 50000000 cycles: 34322402
L1D TOTAL     ACCESS:   19757554  HIT:   18112706  MISS:    1644848
L1D LOAD      ACCESS:    6926200  HIT:    6197263  MISS:     728937
L1D RFO       ACCESS:    6241575  HIT:    5955305  MISS:     286270
L1D PREFETCH  ACCESS:    6589779  HIT:    5960138  MISS:     629641
L1D WRITEBACK ACCESS:          0  HIT:          0  MISS:          0
L1D PREFETCH  REQUESTED:    6973853  ISSUED:    6831401  USEFUL:     152029  USELESS:     477621
L1D AVERAGE MISS LATENCY: 24.3557 cycles
L1I TOTAL     ACCESS:   15738413  HIT:   12558624  MISS:    3179789
L1I LOAD      ACCESS:    9515794  HIT:    9473494  MISS:      42300
L1I RFO       ACCESS:          0  HIT:          0  MISS:          0
L1I PREFETCH  ACCESS:    6222619  HIT:    3085130  MISS:    3137489
L1I WRITEBACK ACCESS:          0  HIT:          0  MISS:          0
L1I PREFETCH  REQUESTED:    6614543  ISSUED:    6531785  USEFUL:    2745906  USELESS:     391579
L1I AVERAGE MISS LATENCY: 19.9449 cycles
L2C TOTAL     ACCESS:    6752789  HIT:    5841295  MISS:     911494
L2C LOAD      ACCESS:     714903  HIT:     564222  MISS:     150681
L2C RFO       ACCESS:     284487  HIT:     184530  MISS:      99957
L2C PREFETCH  ACCESS:    5192231  HIT:    4535806  MISS:     656425
L2C WRITEBACK ACCESS:     561168  HIT:     556737  MISS:       4431
L2C PREFETCH  REQUESTED:    5032210  ISSUED:    5020180  USEFUL:      12125  USELESS:     644089
L2C AVERAGE MISS LATENCY: 37.6869 cycles
LLC TOTAL     ACCESS:    2661698  HIT:    2623408  MISS:      38290
LLC LOAD      ACCESS:     150373  HIT:     146665  MISS:       3708
LLC RFO       ACCESS:      99931  HIT:      85320  MISS:      14611
LLC PREFETCH  ACCESS:    2241719  HIT:    2221966  MISS:      19753
LLC WRITEBACK ACCESS:     169675  HIT:     169457  MISS:        218
LLC PREFETCH  REQUESTED:          0  ISSUED:          0  USEFUL:       1189  USELESS:      18312
LLC AVERAGE MISS LATENCY: 186.946 cycles
Major fault: 0 Minor fault: 2173
CPU 0 L1D next line prefetcher final stats

DRAM Statistics
 CHANNEL 0
 RQ ROW_BUFFER_HIT:      13169  ROW_BUFFER_MISS:      24893
 DBUS_CONGESTED:      24504
 WQ ROW_BUFFER_HIT:       1543  ROW_BUFFER_MISS:      14837  FULL:          0

 AVG_CONGESTED_CYCLE: 6

CPU 0 Branch Prediction Accuracy: 99.822% MPKI: 0.32584 Average ROB Occupancy at Mispredict: 203.712

Branch types
NOT_BRANCH: 40848585 81.6972%
BRANCH_DIRECT_JUMP: 522045 1.04409%
BRANCH_INDIRECT: 204034 0.408068%
BRANCH_CONDITIONAL: 6212965 12.4259%
BRANCH_DIRECT_CALL: 932393 1.86479%
BRANCH_INDIRECT_CALL: 173764 0.347528%
BRANCH_RETURN: 1106152 2.2123%
BRANCH_OTHER: 0 0%

