Initialize SIGNATURE TABLE
ST_SET: 1
ST_WAY: 256
ST_TAG_BIT: 16
ST_TAG_MASK: ffff

Initialize PATTERN TABLE
PT_SET: 512
PT_WAY: 4
SIG_DELTA_BIT: 7
C_SIG_BIT: 4
C_DELTA_BIT: 4

Initialize PREFETCH FILTER
FILTER_SET: 1024

*** ChampSim Multicore Out-of-Order Simulator ***

Warmup Instructions: 50000000
Simulation Instructions: 50000000
Number of CPUs: 1
LLC sets: 2048
LLC ways: 16
Off-chip DRAM Size: 4096 MB Channels: 1 Width: 64-bit Data Rate: 3200 MT/s

CPU 0 runs /home/ChampSim-master//dpc3_traces/server_013.champsimtrace.xz
L1I D-JOLT instruction prefetcher has been constructed!
CPU 0 L1D next line prefetcher
Heartbeat CPU 0 instructions: 10000000 cycles: 3211384 heartbeat IPC: 3.11392 cumulative IPC: 3.11392 (Simulation time: 0 hr 2 min 48 sec) 
Heartbeat CPU 0 instructions: 20000001 cycles: 6412405 heartbeat IPC: 3.124 cumulative IPC: 3.11895 (Simulation time: 0 hr 5 min 51 sec) 
Heartbeat CPU 0 instructions: 30000002 cycles: 9617531 heartbeat IPC: 3.12 cumulative IPC: 3.1193 (Simulation time: 0 hr 9 min 5 sec) 
Heartbeat CPU 0 instructions: 40000002 cycles: 12817934 heartbeat IPC: 3.12461 cumulative IPC: 3.12063 (Simulation time: 0 hr 12 min 17 sec) 
Heartbeat CPU 0 instructions: 50000000 cycles: 16017952 heartbeat IPC: 3.12498 cumulative IPC: 3.1215 (Simulation time: 0 hr 15 min 12 sec) 

Warmup complete CPU 0 instructions: 50000004 cycles: 16017953 (Simulation time: 0 hr 15 min 12 sec) 

Heartbeat CPU 0 instructions: 60000000 cycles: 23582908 heartbeat IPC: 1.32188 cumulative IPC: 1.32188 (Simulation time: 0 hr 18 min 7 sec) 
Heartbeat CPU 0 instructions: 70000002 cycles: 31347920 heartbeat IPC: 1.28783 cumulative IPC: 1.30463 (Simulation time: 0 hr 21 min 4 sec) 
Heartbeat CPU 0 instructions: 80000003 cycles: 38565114 heartbeat IPC: 1.38558 cumulative IPC: 1.33054 (Simulation time: 0 hr 23 min 35 sec) 
Heartbeat CPU 0 instructions: 90000003 cycles: 45972507 heartbeat IPC: 1.35 cumulative IPC: 1.33536 (Simulation time: 0 hr 26 min 0 sec) 
Heartbeat CPU 0 instructions: 100000003 cycles: 53380329 heartbeat IPC: 1.34992 cumulative IPC: 1.33824 (Simulation time: 0 hr 27 min 53 sec) 
Finished CPU 0 instructions: 50000003 cycles: 37362377 cumulative IPC: 1.33824 (Simulation time: 0 hr 27 min 53 sec) 

ChampSim completed all CPUs

Region of Interest Statistics

CPU 0 cumulative IPC: 1.33824 instructions: 50000003 cycles: 37362377
L1D TOTAL     ACCESS:   17308629  HIT:   16242125  MISS:    1066504
L1D LOAD      ACCESS:    6309502  HIT:    5808922  MISS:     500580
L1D RFO       ACCESS:    4929035  HIT:    4848864  MISS:      80171
L1D PREFETCH  ACCESS:    6070092  HIT:    5584339  MISS:     485753
L1D WRITEBACK ACCESS:          0  HIT:          0  MISS:          0
L1D PREFETCH  REQUESTED:    6344195  ISSUED:    6249962  USEFUL:     134172  USELESS:     351588
L1D AVERAGE MISS LATENCY: 42.6266 cycles
L1I TOTAL     ACCESS:   16267752  HIT:   14053691  MISS:    2214061
L1I LOAD      ACCESS:    8729119  HIT:    8637823  MISS:      91296
L1I RFO       ACCESS:          0  HIT:          0  MISS:          0
L1I PREFETCH  ACCESS:    7538633  HIT:    5415868  MISS:    2122765
L1I WRITEBACK ACCESS:          0  HIT:          0  MISS:          0
L1I PREFETCH  REQUESTED:    8401202  ISSUED:    7922122  USEFUL:    1504075  USELESS:     618617
L1I AVERAGE MISS LATENCY: 30.3952 cycles
L2C TOTAL     ACCESS:    4386128  HIT:    2984864  MISS:    1401264
L2C LOAD      ACCESS:     528582  HIT:     243202  MISS:     285380
L2C RFO       ACCESS:      78829  HIT:      30469  MISS:      48360
L2C PREFETCH  ACCESS:    3502931  HIT:    2436927  MISS:    1066004
L2C WRITEBACK ACCESS:     275786  HIT:     274266  MISS:       1520
L2C PREFETCH  REQUESTED:    3448604  ISSUED:    3444382  USEFUL:      27846  USELESS:    1038304
L2C AVERAGE MISS LATENCY: 46.6615 cycles
LLC TOTAL     ACCESS:    2620350  HIT:    2440350  MISS:     180000
LLC LOAD      ACCESS:     285245  HIT:     260451  MISS:      24794
LLC RFO       ACCESS:      48347  HIT:      38795  MISS:       9552
LLC PREFETCH  ACCESS:    2114213  HIT:    1968917  MISS:     145296
LLC WRITEBACK ACCESS:     172545  HIT:     172187  MISS:        358
LLC PREFETCH  REQUESTED:          0  ISSUED:          0  USEFUL:      13336  USELESS:     130774
LLC AVERAGE MISS LATENCY: 174.871 cycles
Major fault: 0 Minor fault: 6210
CPU 0 L1D next line prefetcher final stats

DRAM Statistics
 CHANNEL 0
 RQ ROW_BUFFER_HIT:      27773  ROW_BUFFER_MISS:     151856
 DBUS_CONGESTED:      74821
 WQ ROW_BUFFER_HIT:      12161  ROW_BUFFER_MISS:      51648  FULL:          0

 AVG_CONGESTED_CYCLE: 5

CPU 0 Branch Prediction Accuracy: 99.4114% MPKI: 1.0933 Average ROB Occupancy at Mispredict: 124.04

Branch types
NOT_BRANCH: 40713275 81.4265%
BRANCH_DIRECT_JUMP: 463701 0.927402%
BRANCH_INDIRECT: 146544 0.293088%
BRANCH_CONDITIONAL: 6981956 13.9639%
BRANCH_DIRECT_CALL: 665005 1.33001%
BRANCH_INDIRECT_CALL: 165152 0.330304%
BRANCH_RETURN: 864314 1.72863%
BRANCH_OTHER: 0 0%

