Initialize SIGNATURE TABLE
ST_SET: 1
ST_WAY: 256
ST_TAG_BIT: 16
ST_TAG_MASK: ffff

Initialize PATTERN TABLE
PT_SET: 512
PT_WAY: 4
SIG_DELTA_BIT: 7
C_SIG_BIT: 4
C_DELTA_BIT: 4

Initialize PREFETCH FILTER
FILTER_SET: 1024

*** ChampSim Multicore Out-of-Order Simulator ***

Warmup Instructions: 50000000
Simulation Instructions: 50000000
Number of CPUs: 1
LLC sets: 2048
LLC ways: 16
Off-chip DRAM Size: 4096 MB Channels: 1 Width: 64-bit Data Rate: 3200 MT/s

CPU 0 runs /home/ChampSim-master//dpc3_traces/server_017.champsimtrace.xz
L1I D-JOLT instruction prefetcher has been constructed!
CPU 0 L1D next line prefetcher
Heartbeat CPU 0 instructions: 10000001 cycles: 3622697 heartbeat IPC: 2.76037 cumulative IPC: 2.76037 (Simulation time: 0 hr 3 min 6 sec) 
Heartbeat CPU 0 instructions: 20000000 cycles: 7243522 heartbeat IPC: 2.7618 cumulative IPC: 2.76109 (Simulation time: 0 hr 6 min 13 sec) 
Heartbeat CPU 0 instructions: 30000002 cycles: 10871286 heartbeat IPC: 2.75652 cumulative IPC: 2.75956 (Simulation time: 0 hr 9 min 39 sec) 
Heartbeat CPU 0 instructions: 40000000 cycles: 14494045 heartbeat IPC: 2.76033 cumulative IPC: 2.75975 (Simulation time: 0 hr 12 min 58 sec) 
Heartbeat CPU 0 instructions: 50000001 cycles: 18127839 heartbeat IPC: 2.75195 cumulative IPC: 2.75819 (Simulation time: 0 hr 16 min 22 sec) 

Warmup complete CPU 0 instructions: 50000001 cycles: 18127839 (Simulation time: 0 hr 16 min 22 sec) 

Heartbeat CPU 0 instructions: 60000002 cycles: 35767733 heartbeat IPC: 0.566897 cumulative IPC: 0.566897 (Simulation time: 0 hr 20 min 28 sec) 
Heartbeat CPU 0 instructions: 70000002 cycles: 53525594 heartbeat IPC: 0.563131 cumulative IPC: 0.565008 (Simulation time: 0 hr 24 min 28 sec) 
Heartbeat CPU 0 instructions: 80000000 cycles: 70969353 heartbeat IPC: 0.573271 cumulative IPC: 0.567735 (Simulation time: 0 hr 27 min 17 sec) 
Heartbeat CPU 0 instructions: 90000002 cycles: 94185433 heartbeat IPC: 0.430736 cumulative IPC: 0.525917 (Simulation time: 0 hr 28 min 8 sec) 
Heartbeat CPU 0 instructions: 100000003 cycles: 114204356 heartbeat IPC: 0.499527 cumulative IPC: 0.520419 (Simulation time: 0 hr 28 min 41 sec) 
Finished CPU 0 instructions: 50000002 cycles: 96076517 cumulative IPC: 0.520419 (Simulation time: 0 hr 28 min 41 sec) 

ChampSim completed all CPUs

Region of Interest Statistics

CPU 0 cumulative IPC: 0.520419 instructions: 50000002 cycles: 96076517
L1D TOTAL     ACCESS:   18381226  HIT:   16215647  MISS:    2165579
L1D LOAD      ACCESS:    7024424  HIT:    6280464  MISS:     743960
L1D RFO       ACCESS:    5517217  HIT:    4657929  MISS:     859288
L1D PREFETCH  ACCESS:    5839585  HIT:    5277254  MISS:     562331
L1D WRITEBACK ACCESS:          0  HIT:          0  MISS:          0
L1D PREFETCH  REQUESTED:    7061522  ISSUED:    6871437  USEFUL:     199947  USELESS:     362445
L1D AVERAGE MISS LATENCY: 176.703 cycles
L1I TOTAL     ACCESS:   17569146  HIT:   14576479  MISS:    2992667
L1I LOAD      ACCESS:    9906524  HIT:    9869940  MISS:      36584
L1I RFO       ACCESS:          0  HIT:          0  MISS:          0
L1I PREFETCH  ACCESS:    7662622  HIT:    4706539  MISS:    2956083
L1I WRITEBACK ACCESS:          0  HIT:          0  MISS:          0
L1I PREFETCH  REQUESTED:    8199420  ISSUED:    8131400  USEFUL:    2435353  USELESS:     520724
L1I AVERAGE MISS LATENCY: 18.3128 cycles
L2C TOTAL     ACCESS:    7583535  HIT:    5736177  MISS:    1847358
L2C LOAD      ACCESS:     571495  HIT:     241568  MISS:     329927
L2C RFO       ACCESS:     858687  HIT:      17559  MISS:     841128
L2C PREFETCH  ACCESS:    5030484  HIT:    4356309  MISS:     674175
L2C WRITEBACK ACCESS:    1122869  HIT:    1120741  MISS:       2128
L2C PREFETCH  REQUESTED:    4674460  ISSUED:    4669576  USEFUL:      20795  USELESS:     654082
L2C AVERAGE MISS LATENCY: 211.344 cycles
LLC TOTAL     ACCESS:    4260902  HIT:    2697722  MISS:    1563180
LLC LOAD      ACCESS:     329860  HIT:     172041  MISS:     157819
LLC RFO       ACCESS:     841126  HIT:     122550  MISS:     718576
LLC PREFETCH  ACCESS:    2027824  HIT:    1343331  MISS:     684493
LLC WRITEBACK ACCESS:    1062092  HIT:    1059800  MISS:       2292
LLC PREFETCH  REQUESTED:          0  ISSUED:          0  USEFUL:      49857  USELESS:     633638
LLC AVERAGE MISS LATENCY: 268.162 cycles
Major fault: 0 Minor fault: 24698
CPU 0 L1D next line prefetcher final stats

DRAM Statistics
 CHANNEL 0
 RQ ROW_BUFFER_HIT:     383748  ROW_BUFFER_MISS:    1176944
 DBUS_CONGESTED:    1498241
 WQ ROW_BUFFER_HIT:     248213  ROW_BUFFER_MISS:     632091  FULL:          0

 AVG_CONGESTED_CYCLE: 6

CPU 0 Branch Prediction Accuracy: 99.2833% MPKI: 1.20568 Average ROB Occupancy at Mispredict: 182.404

Branch types
NOT_BRANCH: 41588346 83.1767%
BRANCH_DIRECT_JUMP: 464501 0.929002%
BRANCH_INDIRECT: 45704 0.091408%
BRANCH_CONDITIONAL: 6147408 12.2948%
BRANCH_DIRECT_CALL: 675450 1.3509%
BRANCH_INDIRECT_CALL: 201532 0.403064%
BRANCH_RETURN: 876985 1.75397%
BRANCH_OTHER: 0 0%

