Initialize SIGNATURE TABLE
ST_SET: 1
ST_WAY: 256
ST_TAG_BIT: 16
ST_TAG_MASK: ffff

Initialize PATTERN TABLE
PT_SET: 512
PT_WAY: 4
SIG_DELTA_BIT: 7
C_SIG_BIT: 4
C_DELTA_BIT: 4

Initialize PREFETCH FILTER
FILTER_SET: 1024

*** ChampSim Multicore Out-of-Order Simulator ***

Warmup Instructions: 50000000
Simulation Instructions: 50000000
Number of CPUs: 1
LLC sets: 2048
LLC ways: 16
Off-chip DRAM Size: 4096 MB Channels: 1 Width: 64-bit Data Rate: 3200 MT/s

CPU 0 runs /home/ChampSim-master//dpc3_traces/server_016.champsimtrace.xz
L1I D-JOLT instruction prefetcher has been constructed!
CPU 0 L1D next line prefetcher
Heartbeat CPU 0 instructions: 10000000 cycles: 3494866 heartbeat IPC: 2.86134 cumulative IPC: 2.86134 (Simulation time: 0 hr 3 min 2 sec) 
Heartbeat CPU 0 instructions: 20000000 cycles: 6990381 heartbeat IPC: 2.86081 cumulative IPC: 2.86107 (Simulation time: 0 hr 6 min 12 sec) 
Heartbeat CPU 0 instructions: 30000001 cycles: 10480916 heartbeat IPC: 2.86489 cumulative IPC: 2.86235 (Simulation time: 0 hr 8 min 59 sec) 
Heartbeat CPU 0 instructions: 40000000 cycles: 13778521 heartbeat IPC: 3.0325 cumulative IPC: 2.90307 (Simulation time: 0 hr 10 min 26 sec) 
Heartbeat CPU 0 instructions: 50000002 cycles: 17013986 heartbeat IPC: 3.09075 cumulative IPC: 2.93876 (Simulation time: 0 hr 11 min 26 sec) 

Warmup complete CPU 0 instructions: 50000002 cycles: 17013986 (Simulation time: 0 hr 11 min 26 sec) 

Heartbeat CPU 0 instructions: 60000001 cycles: 24975273 heartbeat IPC: 1.25608 cumulative IPC: 1.25608 (Simulation time: 0 hr 12 min 39 sec) 
Heartbeat CPU 0 instructions: 70000001 cycles: 31710492 heartbeat IPC: 1.48473 cumulative IPC: 1.36087 (Simulation time: 0 hr 15 min 33 sec) 
Heartbeat CPU 0 instructions: 80000001 cycles: 38537992 heartbeat IPC: 1.46466 cumulative IPC: 1.39379 (Simulation time: 0 hr 18 min 3 sec) 
Heartbeat CPU 0 instructions: 90000000 cycles: 45150825 heartbeat IPC: 1.51221 cumulative IPC: 1.42162 (Simulation time: 0 hr 21 min 3 sec) 
Heartbeat CPU 0 instructions: 100000000 cycles: 51887999 heartbeat IPC: 1.4843 cumulative IPC: 1.43373 (Simulation time: 0 hr 23 min 30 sec) 
Finished CPU 0 instructions: 50000002 cycles: 34874014 cumulative IPC: 1.43373 (Simulation time: 0 hr 23 min 30 sec) 

ChampSim completed all CPUs

Region of Interest Statistics

CPU 0 cumulative IPC: 1.43373 instructions: 50000002 cycles: 34874014
L1D TOTAL     ACCESS:   17904699  HIT:   16637403  MISS:    1267296
L1D LOAD      ACCESS:    6497589  HIT:    5923524  MISS:     574065
L1D RFO       ACCESS:    5192989  HIT:    4971061  MISS:     221928
L1D PREFETCH  ACCESS:    6214121  HIT:    5742818  MISS:     471303
L1D WRITEBACK ACCESS:          0  HIT:          0  MISS:          0
L1D PREFETCH  REQUESTED:    6539867  ISSUED:    6434504  USEFUL:     112272  USELESS:     359049
L1D AVERAGE MISS LATENCY: 23.95 cycles
L1I TOTAL     ACCESS:   14699844  HIT:   12275283  MISS:    2424561
L1I LOAD      ACCESS:    9873928  HIT:    9834849  MISS:      39079
L1I RFO       ACCESS:          0  HIT:          0  MISS:          0
L1I PREFETCH  ACCESS:    4825916  HIT:    2440434  MISS:    2385482
L1I WRITEBACK ACCESS:          0  HIT:          0  MISS:          0
L1I PREFETCH  REQUESTED:    5141801  ISSUED:    5057682  USEFUL:    2068788  USELESS:     316689
L1I AVERAGE MISS LATENCY: 19.8786 cycles
L2C TOTAL     ACCESS:    5123860  HIT:    4459466  MISS:     664394
L2C LOAD      ACCESS:     557629  HIT:     450912  MISS:     106717
L2C RFO       ACCESS:     220393  HIT:     150813  MISS:      69580
L2C PREFETCH  ACCESS:    3917590  HIT:    3432774  MISS:     484816
L2C WRITEBACK ACCESS:     428248  HIT:     424967  MISS:       3281
L2C PREFETCH  REQUESTED:    3543388  ISSUED:    3539886  USEFUL:       9812  USELESS:     473930
L2C AVERAGE MISS LATENCY: 39.577 cycles
LLC TOTAL     ACCESS:    1729567  HIT:    1691730  MISS:      37837
LLC LOAD      ACCESS:     106527  HIT:     102079  MISS:       4448
LLC RFO       ACCESS:      69565  HIT:      55986  MISS:      13579
LLC PREFETCH  ACCESS:    1444571  HIT:    1424921  MISS:      19650
LLC WRITEBACK ACCESS:     108904  HIT:     108744  MISS:        160
LLC PREFETCH  REQUESTED:          0  ISSUED:          0  USEFUL:       1746  USELESS:      18250
LLC AVERAGE MISS LATENCY: 177.385 cycles
Major fault: 0 Minor fault: 2372
CPU 0 L1D next line prefetcher final stats

DRAM Statistics
 CHANNEL 0
 RQ ROW_BUFFER_HIT:      11607  ROW_BUFFER_MISS:      26070
 DBUS_CONGESTED:      23207
 WQ ROW_BUFFER_HIT:       1567  ROW_BUFFER_MISS:      14283  FULL:          0

 AVG_CONGESTED_CYCLE: 6

CPU 0 Branch Prediction Accuracy: 99.7225% MPKI: 0.50376 Average ROB Occupancy at Mispredict: 133.429

Branch types
NOT_BRANCH: 40924081 81.8482%
BRANCH_DIRECT_JUMP: 487047 0.974094%
BRANCH_INDIRECT: 169159 0.338318%
BRANCH_CONDITIONAL: 6640844 13.2817%
BRANCH_DIRECT_CALL: 755592 1.51118%
BRANCH_INDIRECT_CALL: 133962 0.267924%
BRANCH_RETURN: 889572 1.77914%
BRANCH_OTHER: 0 0%

