Initialize SIGNATURE TABLE
ST_SET: 1
ST_WAY: 256
ST_TAG_BIT: 16
ST_TAG_MASK: ffff

Initialize PATTERN TABLE
PT_SET: 512
PT_WAY: 4
SIG_DELTA_BIT: 7
C_SIG_BIT: 4
C_DELTA_BIT: 4

Initialize PREFETCH FILTER
FILTER_SET: 1024

*** ChampSim Multicore Out-of-Order Simulator ***

Warmup Instructions: 50000000
Simulation Instructions: 50000000
Number of CPUs: 1
LLC sets: 2048
LLC ways: 16
Off-chip DRAM Size: 4096 MB Channels: 1 Width: 64-bit Data Rate: 3200 MT/s

CPU 0 runs /home/ChampSim-master//dpc3_traces/server_032.champsimtrace.xz
L1I D-JOLT instruction prefetcher has been constructed!
CPU 0 L1D next line prefetcher
Heartbeat CPU 0 instructions: 10000002 cycles: 3520869 heartbeat IPC: 2.84021 cumulative IPC: 2.84021 (Simulation time: 0 hr 2 min 43 sec) 
Heartbeat CPU 0 instructions: 20000003 cycles: 7042874 heartbeat IPC: 2.83929 cumulative IPC: 2.83975 (Simulation time: 0 hr 5 min 51 sec) 
Heartbeat CPU 0 instructions: 30000000 cycles: 10563820 heartbeat IPC: 2.84014 cumulative IPC: 2.83988 (Simulation time: 0 hr 8 min 25 sec) 
Heartbeat CPU 0 instructions: 40000003 cycles: 14086016 heartbeat IPC: 2.83914 cumulative IPC: 2.8397 (Simulation time: 0 hr 10 min 58 sec) 
Heartbeat CPU 0 instructions: 50000000 cycles: 17608240 heartbeat IPC: 2.83911 cumulative IPC: 2.83958 (Simulation time: 0 hr 13 min 32 sec) 

Warmup complete CPU 0 instructions: 50000004 cycles: 17608241 (Simulation time: 0 hr 13 min 32 sec) 

Heartbeat CPU 0 instructions: 60000002 cycles: 24296538 heartbeat IPC: 1.49515 cumulative IPC: 1.49515 (Simulation time: 0 hr 16 min 9 sec) 
Heartbeat CPU 0 instructions: 70000000 cycles: 30983622 heartbeat IPC: 1.49542 cumulative IPC: 1.49528 (Simulation time: 0 hr 18 min 51 sec) 
*** Reached end of trace for Core: 0 Repeating trace: /home/ChampSim-master//dpc3_traces/server_032.champsimtrace.xz
Heartbeat CPU 0 instructions: 80000003 cycles: 37668944 heartbeat IPC: 1.49581 cumulative IPC: 1.49546 (Simulation time: 0 hr 21 min 18 sec) 
Heartbeat CPU 0 instructions: 90000002 cycles: 44328838 heartbeat IPC: 1.50153 cumulative IPC: 1.49697 (Simulation time: 0 hr 23 min 24 sec) 
Heartbeat CPU 0 instructions: 100000001 cycles: 50995774 heartbeat IPC: 1.49994 cumulative IPC: 1.49756 (Simulation time: 0 hr 24 min 35 sec) 
Finished CPU 0 instructions: 50000002 cycles: 33387535 cumulative IPC: 1.49756 (Simulation time: 0 hr 24 min 35 sec) 

ChampSim completed all CPUs

Region of Interest Statistics

CPU 0 cumulative IPC: 1.49756 instructions: 50000002 cycles: 33387535
L1D TOTAL     ACCESS:   19810500  HIT:   17982310  MISS:    1828190
L1D LOAD      ACCESS:    6762481  HIT:    5966806  MISS:     795675
L1D RFO       ACCESS:    6564507  HIT:    6270887  MISS:     293620
L1D PREFETCH  ACCESS:    6483512  HIT:    5744617  MISS:     738895
L1D WRITEBACK ACCESS:          0  HIT:          0  MISS:          0
L1D PREFETCH  REQUESTED:    6811162  ISSUED:    6672308  USEFUL:     168792  USELESS:     570102
L1D AVERAGE MISS LATENCY: 18.4405 cycles
L1I TOTAL     ACCESS:   16539368  HIT:   13170659  MISS:    3368709
L1I LOAD      ACCESS:    9691049  HIT:    9643283  MISS:      47766
L1I RFO       ACCESS:          0  HIT:          0  MISS:          0
L1I PREFETCH  ACCESS:    6848319  HIT:    3527376  MISS:    3320943
L1I WRITEBACK ACCESS:          0  HIT:          0  MISS:          0
L1I PREFETCH  REQUESTED:    7126753  ISSUED:    7117524  USEFUL:    3139338  USELESS:     181605
L1I AVERAGE MISS LATENCY: 17.188 cycles
L2C TOTAL     ACCESS:    7544548  HIT:    7057177  MISS:     487371
L2C LOAD      ACCESS:     814990  HIT:     725354  MISS:      89636
L2C RFO       ACCESS:     292319  HIT:     254165  MISS:      38154
L2C PREFETCH  ACCESS:    5800845  HIT:    5442998  MISS:     357847
L2C WRITEBACK ACCESS:     636394  HIT:     634660  MISS:       1734
L2C PREFETCH  REQUESTED:    5250117  ISSUED:    5240356  USEFUL:       2867  USELESS:     354893
L2C AVERAGE MISS LATENCY: 32.7126 cycles
LLC TOTAL     ACCESS:    1876068  HIT:    1869843  MISS:       6225
LLC LOAD      ACCESS:      89581  HIT:      89063  MISS:        518
LLC RFO       ACCESS:      38152  HIT:      38152  MISS:          0
LLC PREFETCH  ACCESS:    1671055  HIT:    1665378  MISS:       5677
LLC WRITEBACK ACCESS:      77280  HIT:      77250  MISS:         30
LLC PREFETCH  REQUESTED:          0  ISSUED:          0  USEFUL:        404  USELESS:       2600
LLC AVERAGE MISS LATENCY: 147.155 cycles
Major fault: 0 Minor fault: 1183
CPU 0 L1D next line prefetcher final stats

DRAM Statistics
 CHANNEL 0
 RQ ROW_BUFFER_HIT:       1698  ROW_BUFFER_MISS:       4497
 DBUS_CONGESTED:        740
 WQ ROW_BUFFER_HIT:          2  ROW_BUFFER_MISS:         25  FULL:          0

 AVG_CONGESTED_CYCLE: 4

CPU 0 Branch Prediction Accuracy: 99.8762% MPKI: 0.2296 Average ROB Occupancy at Mispredict: 184.408

Branch types
NOT_BRANCH: 40726177 81.4524%
BRANCH_DIRECT_JUMP: 508374 1.01675%
BRANCH_INDIRECT: 180051 0.360102%
BRANCH_CONDITIONAL: 5999665 11.9993%
BRANCH_DIRECT_CALL: 1086739 2.17348%
BRANCH_INDIRECT_CALL: 206109 0.412218%
BRANCH_RETURN: 1292837 2.58567%
BRANCH_OTHER: 0 0%

