Initialize SIGNATURE TABLE
ST_SET: 1
ST_WAY: 256
ST_TAG_BIT: 16
ST_TAG_MASK: ffff

Initialize PATTERN TABLE
PT_SET: 512
PT_WAY: 4
SIG_DELTA_BIT: 7
C_SIG_BIT: 4
C_DELTA_BIT: 4

Initialize PREFETCH FILTER
FILTER_SET: 1024

*** ChampSim Multicore Out-of-Order Simulator ***

Warmup Instructions: 50000000
Simulation Instructions: 50000000
Number of CPUs: 1
LLC sets: 2048
LLC ways: 16
Off-chip DRAM Size: 4096 MB Channels: 1 Width: 64-bit Data Rate: 3200 MT/s

CPU 0 runs /home/ChampSim-master//dpc3_traces/spec_x264_001.champsimtrace.xz
L1I D-JOLT instruction prefetcher has been constructed!
CPU 0 L1D next line prefetcher
Heartbeat CPU 0 instructions: 10000002 cycles: 3059506 heartbeat IPC: 3.2685 cumulative IPC: 3.2685 (Simulation time: 0 hr 1 min 48 sec) 
Heartbeat CPU 0 instructions: 20000002 cycles: 6109160 heartbeat IPC: 3.27906 cumulative IPC: 3.27377 (Simulation time: 0 hr 3 min 41 sec) 
Heartbeat CPU 0 instructions: 30000002 cycles: 9144410 heartbeat IPC: 3.29462 cumulative IPC: 3.28069 (Simulation time: 0 hr 5 min 27 sec) 
Heartbeat CPU 0 instructions: 40000000 cycles: 12188437 heartbeat IPC: 3.28512 cumulative IPC: 3.2818 (Simulation time: 0 hr 7 min 13 sec) 
Heartbeat CPU 0 instructions: 50000000 cycles: 15231263 heartbeat IPC: 3.28642 cumulative IPC: 3.28272 (Simulation time: 0 hr 8 min 56 sec) 

Warmup complete CPU 0 instructions: 50000004 cycles: 15231264 (Simulation time: 0 hr 8 min 56 sec) 

Heartbeat CPU 0 instructions: 60000002 cycles: 21167588 heartbeat IPC: 1.68454 cumulative IPC: 1.68454 (Simulation time: 0 hr 10 min 8 sec) 
Heartbeat CPU 0 instructions: 70000000 cycles: 27084182 heartbeat IPC: 1.69016 cumulative IPC: 1.68735 (Simulation time: 0 hr 11 min 31 sec) 
Heartbeat CPU 0 instructions: 80000003 cycles: 33146539 heartbeat IPC: 1.64952 cumulative IPC: 1.67455 (Simulation time: 0 hr 12 min 45 sec) 
Heartbeat CPU 0 instructions: 90000002 cycles: 39188661 heartbeat IPC: 1.65505 cumulative IPC: 1.66963 (Simulation time: 0 hr 13 min 56 sec) 
Heartbeat CPU 0 instructions: 100000002 cycles: 45090927 heartbeat IPC: 1.69426 cumulative IPC: 1.6745 (Simulation time: 0 hr 15 min 8 sec) 
Finished CPU 0 instructions: 50000002 cycles: 29859664 cumulative IPC: 1.6745 (Simulation time: 0 hr 15 min 8 sec) 

ChampSim completed all CPUs

Region of Interest Statistics

CPU 0 cumulative IPC: 1.6745 instructions: 50000002 cycles: 29859664
L1D TOTAL     ACCESS:   12968344  HIT:   12807302  MISS:     161042
L1D LOAD      ACCESS:    5096458  HIT:    5041268  MISS:      55190
L1D RFO       ACCESS:    2880785  HIT:    2846526  MISS:      34259
L1D PREFETCH  ACCESS:    4991101  HIT:    4919508  MISS:      71593
L1D WRITEBACK ACCESS:          0  HIT:          0  MISS:          0
L1D PREFETCH  REQUESTED:    5113184  ISSUED:    5045478  USEFUL:      25725  USELESS:      45677
L1D AVERAGE MISS LATENCY: 40.6383 cycles
L1I TOTAL     ACCESS:    9655343  HIT:    9248144  MISS:     407199
L1I LOAD      ACCESS:    8037859  HIT:    8028312  MISS:       9547
L1I RFO       ACCESS:          0  HIT:          0  MISS:          0
L1I PREFETCH  ACCESS:    1617484  HIT:    1219832  MISS:     397652
L1I WRITEBACK ACCESS:          0  HIT:          0  MISS:          0
L1I PREFETCH  REQUESTED:    1774323  ISSUED:    1703911  USEFUL:     300332  USELESS:      97360
L1I AVERAGE MISS LATENCY: 14.967 cycles
L2C TOTAL     ACCESS:     868892  HIT:     830307  MISS:      38585
L2C LOAD      ACCESS:      62461  HIT:      57200  MISS:       5261
L2C RFO       ACCESS:      34008  HIT:      21942  MISS:      12066
L2C PREFETCH  ACCESS:     729370  HIT:     708189  MISS:      21181
L2C WRITEBACK ACCESS:      43053  HIT:      42976  MISS:         77
L2C PREFETCH  REQUESTED:     631699  ISSUED:     627392  USEFUL:       8962  USELESS:      12426
L2C AVERAGE MISS LATENCY: 107.394 cycles
LLC TOTAL     ACCESS:     121544  HIT:      92385  MISS:      29159
LLC LOAD      ACCESS:       5261  HIT:       3141  MISS:       2120
LLC RFO       ACCESS:      12066  HIT:        459  MISS:      11607
LLC PREFETCH  ACCESS:      90579  HIT:      75208  MISS:      15371
LLC WRITEBACK ACCESS:      13638  HIT:      13577  MISS:         61
LLC PREFETCH  REQUESTED:          0  ISSUED:          0  USEFUL:       1726  USELESS:      13983
LLC AVERAGE MISS LATENCY: 166.425 cycles
Major fault: 0 Minor fault: 1285
CPU 0 L1D next line prefetcher final stats

DRAM Statistics
 CHANNEL 0
 RQ ROW_BUFFER_HIT:       8805  ROW_BUFFER_MISS:      20292
 DBUS_CONGESTED:      12103
 WQ ROW_BUFFER_HIT:       2973  ROW_BUFFER_MISS:       9795  FULL:          0

 AVG_CONGESTED_CYCLE: 6

CPU 0 Branch Prediction Accuracy: 97.1633% MPKI: 1.73704 Average ROB Occupancy at Mispredict: 43.0732

Branch types
NOT_BRANCH: 46937921 93.8758%
BRANCH_DIRECT_JUMP: 170816 0.341632%
BRANCH_INDIRECT: 0 0%
BRANCH_CONDITIONAL: 2532774 5.06555%
BRANCH_DIRECT_CALL: 114227 0.228454%
BRANCH_INDIRECT_CALL: 64863 0.129726%
BRANCH_RETURN: 179089 0.358178%
BRANCH_OTHER: 0 0%

