Initialize SIGNATURE TABLE
ST_SET: 1
ST_WAY: 256
ST_TAG_BIT: 16
ST_TAG_MASK: ffff

Initialize PATTERN TABLE
PT_SET: 512
PT_WAY: 4
SIG_DELTA_BIT: 7
C_SIG_BIT: 4
C_DELTA_BIT: 4

Initialize PREFETCH FILTER
FILTER_SET: 1024

*** ChampSim Multicore Out-of-Order Simulator ***

Warmup Instructions: 50000000
Simulation Instructions: 50000000
Number of CPUs: 1
LLC sets: 2048
LLC ways: 16
Off-chip DRAM Size: 4096 MB Channels: 1 Width: 64-bit Data Rate: 3200 MT/s

CPU 0 runs /home/ChampSim-master//dpc3_traces/spec_gcc_001.champsimtrace.xz
CPU 0 L1D next line prefetcher
Heartbeat CPU 0 instructions: 10000003 cycles: 3220434 heartbeat IPC: 3.10517 cumulative IPC: 3.10517 (Simulation time: 0 hr 5 min 6 sec) 
Heartbeat CPU 0 instructions: 20000002 cycles: 6465996 heartbeat IPC: 3.08113 cumulative IPC: 3.0931 (Simulation time: 0 hr 10 min 19 sec) 
Heartbeat CPU 0 instructions: 30000000 cycles: 9668354 heartbeat IPC: 3.1227 cumulative IPC: 3.10291 (Simulation time: 0 hr 16 min 5 sec) 
Heartbeat CPU 0 instructions: 40000001 cycles: 12910981 heartbeat IPC: 3.08392 cumulative IPC: 3.09814 (Simulation time: 0 hr 22 min 8 sec) 
Heartbeat CPU 0 instructions: 50000001 cycles: 16152595 heartbeat IPC: 3.08488 cumulative IPC: 3.09548 (Simulation time: 0 hr 28 min 16 sec) 

Warmup complete CPU 0 instructions: 50000001 cycles: 16152595 (Simulation time: 0 hr 28 min 16 sec) 

Heartbeat CPU 0 instructions: 60000000 cycles: 23901836 heartbeat IPC: 1.29045 cumulative IPC: 1.29045 (Simulation time: 0 hr 34 min 36 sec) 
Heartbeat CPU 0 instructions: 70000002 cycles: 31814113 heartbeat IPC: 1.26386 cumulative IPC: 1.27702 (Simulation time: 0 hr 41 min 0 sec) 
Heartbeat CPU 0 instructions: 80000000 cycles: 39421617 heartbeat IPC: 1.31449 cumulative IPC: 1.28927 (Simulation time: 0 hr 46 min 59 sec) 
Heartbeat CPU 0 instructions: 90000003 cycles: 47353534 heartbeat IPC: 1.26073 cumulative IPC: 1.28201 (Simulation time: 0 hr 51 min 38 sec) 
Heartbeat CPU 0 instructions: 100000000 cycles: 55545498 heartbeat IPC: 1.22071 cumulative IPC: 1.26926 (Simulation time: 0 hr 54 min 35 sec) 
Finished CPU 0 instructions: 50000000 cycles: 39392907 cumulative IPC: 1.26926 (Simulation time: 0 hr 54 min 35 sec) 

ChampSim completed all CPUs

Region of Interest Statistics

CPU 0 cumulative IPC: 1.26926 instructions: 50000000 cycles: 39392907
L1D TOTAL     ACCESS:   19359290  HIT:   18254162  MISS:    1105128
L1D LOAD      ACCESS:    7253206  HIT:    6773154  MISS:     480052
L1D RFO       ACCESS:    5116436  HIT:    5036668  MISS:      79768
L1D PREFETCH  ACCESS:    6989648  HIT:    6444340  MISS:     545308
L1D WRITEBACK ACCESS:          0  HIT:          0  MISS:          0
L1D PREFETCH  REQUESTED:    7298828  ISSUED:    7200294  USEFUL:     275108  USELESS:     270211
L1D AVERAGE MISS LATENCY: 26.9569 cycles
L1I TOTAL     ACCESS:   20495085  HIT:   18866203  MISS:    1628882
L1I LOAD      ACCESS:    9334390  HIT:    9204383  MISS:     130007
L1I RFO       ACCESS:          0  HIT:          0  MISS:          0
L1I PREFETCH  ACCESS:   11160695  HIT:    9661820  MISS:    1498875
L1I WRITEBACK ACCESS:          0  HIT:          0  MISS:          0
L1I PREFETCH  REQUESTED:   11270875  ISSUED:   11266994  USEFUL:     522804  USELESS:     976043
L1I AVERAGE MISS LATENCY: 17.5542 cycles
L2C TOTAL     ACCESS:    4192374  HIT:    3870193  MISS:     322181
L2C LOAD      ACCESS:     510647  HIT:     423337  MISS:      87310
L2C RFO       ACCESS:      75042  HIT:      34641  MISS:      40401
L2C PREFETCH  ACCESS:    3352935  HIT:    3159016  MISS:     193919
L2C WRITEBACK ACCESS:     253750  HIT:     253199  MISS:        551
L2C PREFETCH  REQUESTED:    2348479  ISSUED:    2348172  USEFUL:      37144  USELESS:     155397
L2C AVERAGE MISS LATENCY: 65.2043 cycles
LLC TOTAL     ACCESS:     826563  HIT:     741019  MISS:      85544
LLC LOAD      ACCESS:      87092  HIT:      80444  MISS:       6648
LLC RFO       ACCESS:      40400  HIT:      18229  MISS:      22171
LLC PREFETCH  ACCESS:     597096  HIT:     541212  MISS:      55884
LLC WRITEBACK ACCESS:     101975  HIT:     101134  MISS:        841
LLC PREFETCH  REQUESTED:          0  ISSUED:          0  USEFUL:      10029  USELESS:      47965
LLC AVERAGE MISS LATENCY: 194.248 cycles
Major fault: 0 Minor fault: 6886
CPU 0 L1D next line prefetcher final stats

DRAM Statistics
 CHANNEL 0
 RQ ROW_BUFFER_HIT:      22545  ROW_BUFFER_MISS:      62150
 DBUS_CONGESTED:      45845
 WQ ROW_BUFFER_HIT:       4201  ROW_BUFFER_MISS:      26807  FULL:          0

 AVG_CONGESTED_CYCLE: 6

CPU 0 Branch Prediction Accuracy: 95.8872% MPKI: 9.67286 Average ROB Occupancy at Mispredict: 65.9788

Branch types
NOT_BRANCH: 38240102 76.4802%
BRANCH_DIRECT_JUMP: 653296 1.30659%
BRANCH_INDIRECT: 37098 0.074196%
BRANCH_CONDITIONAL: 8897819 17.7956%
BRANCH_DIRECT_CALL: 992620 1.98524%
BRANCH_INDIRECT_CALL: 93046 0.186092%
BRANCH_RETURN: 1085674 2.17135%
BRANCH_OTHER: 0 0%

