Initialize SIGNATURE TABLE
ST_SET: 1
ST_WAY: 256
ST_TAG_BIT: 16
ST_TAG_MASK: ffff

Initialize PATTERN TABLE
PT_SET: 512
PT_WAY: 4
SIG_DELTA_BIT: 7
C_SIG_BIT: 4
C_DELTA_BIT: 4

Initialize PREFETCH FILTER
FILTER_SET: 1024

*** ChampSim Multicore Out-of-Order Simulator ***

Warmup Instructions: 50000000
Simulation Instructions: 50000000
Number of CPUs: 1
LLC sets: 2048
LLC ways: 16
Off-chip DRAM Size: 4096 MB Channels: 1 Width: 64-bit Data Rate: 3200 MT/s

CPU 0 runs /home/ChampSim-master//dpc3_traces/spec_gcc_003.champsimtrace.xz
CPU 0 EPI prefetcher
CPU 0 L1D next line prefetcher
Heartbeat CPU 0 instructions: 10000001 cycles: 3496830 heartbeat IPC: 2.85973 cumulative IPC: 2.85973 (Simulation time: 0 hr 2 min 25 sec) 
Heartbeat CPU 0 instructions: 20000000 cycles: 6966492 heartbeat IPC: 2.88212 cumulative IPC: 2.87089 (Simulation time: 0 hr 4 min 44 sec) 
Heartbeat CPU 0 instructions: 30000002 cycles: 10413628 heartbeat IPC: 2.90096 cumulative IPC: 2.88084 (Simulation time: 0 hr 7 min 2 sec) 
Heartbeat CPU 0 instructions: 40000000 cycles: 13885222 heartbeat IPC: 2.88052 cumulative IPC: 2.88076 (Simulation time: 0 hr 9 min 20 sec) 
Heartbeat CPU 0 instructions: 50000001 cycles: 17194015 heartbeat IPC: 3.02225 cumulative IPC: 2.90799 (Simulation time: 0 hr 11 min 38 sec) 

Warmup complete CPU 0 instructions: 50000001 cycles: 17194015 (Simulation time: 0 hr 11 min 38 sec) 

Heartbeat CPU 0 instructions: 60000000 cycles: 57781973 heartbeat IPC: 0.246378 cumulative IPC: 0.246378 (Simulation time: 0 hr 16 min 8 sec) 
Heartbeat CPU 0 instructions: 70000000 cycles: 101337537 heartbeat IPC: 0.229592 cumulative IPC: 0.237689 (Simulation time: 0 hr 20 min 33 sec) 
Heartbeat CPU 0 instructions: 80000003 cycles: 145655324 heartbeat IPC: 0.225643 cumulative IPC: 0.233533 (Simulation time: 0 hr 24 min 50 sec) 
Heartbeat CPU 0 instructions: 90000002 cycles: 183133462 heartbeat IPC: 0.266822 cumulative IPC: 0.241052 (Simulation time: 0 hr 27 min 17 sec) 
Heartbeat CPU 0 instructions: 100000000 cycles: 229931880 heartbeat IPC: 0.213682 cumulative IPC: 0.235031 (Simulation time: 0 hr 28 min 11 sec) 
Finished CPU 0 instructions: 50000000 cycles: 212737866 cumulative IPC: 0.235031 (Simulation time: 0 hr 28 min 11 sec) 

ChampSim completed all CPUs

Region of Interest Statistics

CPU 0 cumulative IPC: 0.235031 instructions: 50000000 cycles: 212737866
L1D TOTAL     ACCESS:   17013638  HIT:   11288956  MISS:    5724682
L1D LOAD      ACCESS:    4644623  HIT:    4262162  MISS:     382461
L1D RFO       ACCESS:    8212253  HIT:    3160459  MISS:    5051794
L1D PREFETCH  ACCESS:    4156762  HIT:    3866335  MISS:     290427
L1D WRITEBACK ACCESS:          0  HIT:          0  MISS:          0
L1D PREFETCH  REQUESTED:    4662234  ISSUED:    4603832  USEFUL:     152765  USELESS:     137842
L1D AVERAGE MISS LATENCY: 503.875 cycles
L1I TOTAL     ACCESS:   22452371  HIT:   21533471  MISS:     918900
L1I LOAD      ACCESS:   11241186  HIT:   11042032  MISS:     199154
L1I RFO       ACCESS:          0  HIT:          0  MISS:          0
L1I PREFETCH  ACCESS:   11211185  HIT:   10491439  MISS:     719746
L1I WRITEBACK ACCESS:          0  HIT:          0  MISS:          0
L1I PREFETCH  REQUESTED:   12696937  ISSUED:   12696937  USEFUL:     550912  USELESS:     168774
L1I AVERAGE MISS LATENCY: 71.64 cycles
L2C TOTAL     ACCESS:   12105055  HIT:    6081000  MISS:    6024055
L2C LOAD      ACCESS:     368138  HIT:     136675  MISS:     231463
L2C RFO       ACCESS:    5049988  HIT:       6503  MISS:    5043485
L2C PREFETCH  ACCESS:    1529081  HIT:     780150  MISS:     748931
L2C WRITEBACK ACCESS:    5157848  HIT:    5157672  MISS:        176
L2C PREFETCH  REQUESTED:    1661197  ISSUED:    1661196  USEFUL:      24107  USELESS:     721720
L2C AVERAGE MISS LATENCY: 475.934 cycles
LLC TOTAL     ACCESS:   11842657  HIT:    7096801  MISS:    4745856
LLC LOAD      ACCESS:     231433  HIT:     170281  MISS:      61152
LLC RFO       ACCESS:    5043485  HIT:     618579  MISS:    4424906
LLC PREFETCH  ACCESS:    1433863  HIT:    1174065  MISS:     259798
LLC WRITEBACK ACCESS:    5133876  HIT:    5133876  MISS:          0
LLC PREFETCH  REQUESTED:          0  ISSUED:          0  USEFUL:      26557  USELESS:     233029
LLC AVERAGE MISS LATENCY: 574.076 cycles
Major fault: 0 Minor fault: 2819
CPU 0 L1I EPI prefetcher final stats
CPU 0 L1D next line prefetcher final stats

DRAM Statistics
 CHANNEL 0
 RQ ROW_BUFFER_HIT:    1431438  ROW_BUFFER_MISS:    3314323
 DBUS_CONGESTED:    8228269
 WQ ROW_BUFFER_HIT:    1196193  ROW_BUFFER_MISS:    3257576  FULL:          0

 AVG_CONGESTED_CYCLE: 6

CPU 0 Branch Prediction Accuracy: 99.665% MPKI: 0.78342 Average ROB Occupancy at Mispredict: 104.353

Branch types
NOT_BRANCH: 38305856 76.6117%
BRANCH_DIRECT_JUMP: 384281 0.768562%
BRANCH_INDIRECT: 71949 0.143898%
BRANCH_CONDITIONAL: 9879825 19.7597%
BRANCH_DIRECT_CALL: 650586 1.30117%
BRANCH_INDIRECT_CALL: 28456 0.056912%
BRANCH_RETURN: 679046 1.35809%
BRANCH_OTHER: 0 0%

