Initialize SIGNATURE TABLE
ST_SET: 1
ST_WAY: 256
ST_TAG_BIT: 16
ST_TAG_MASK: ffff

Initialize PATTERN TABLE
PT_SET: 512
PT_WAY: 4
SIG_DELTA_BIT: 7
C_SIG_BIT: 4
C_DELTA_BIT: 4

Initialize PREFETCH FILTER
FILTER_SET: 1024

*** ChampSim Multicore Out-of-Order Simulator ***

Warmup Instructions: 50000000
Simulation Instructions: 50000000
Number of CPUs: 1
LLC sets: 2048
LLC ways: 16
Off-chip DRAM Size: 4096 MB Channels: 1 Width: 64-bit Data Rate: 3200 MT/s

CPU 0 runs /home/ChampSim-master//dpc3_traces/spec_gobmk_001.champsimtrace.xz
CPU 0 L1D next line prefetcher
Heartbeat CPU 0 instructions: 10000003 cycles: 3507818 heartbeat IPC: 2.85078 cumulative IPC: 2.85078 (Simulation time: 0 hr 4 min 52 sec) 
Heartbeat CPU 0 instructions: 20000002 cycles: 6988717 heartbeat IPC: 2.87282 cumulative IPC: 2.86176 (Simulation time: 0 hr 9 min 36 sec) 
Heartbeat CPU 0 instructions: 30000002 cycles: 10508752 heartbeat IPC: 2.84088 cumulative IPC: 2.85476 (Simulation time: 0 hr 14 min 21 sec) 
Heartbeat CPU 0 instructions: 40000001 cycles: 14028426 heartbeat IPC: 2.84117 cumulative IPC: 2.85135 (Simulation time: 0 hr 19 min 1 sec) 
Heartbeat CPU 0 instructions: 50000001 cycles: 17569299 heartbeat IPC: 2.82416 cumulative IPC: 2.84587 (Simulation time: 0 hr 23 min 45 sec) 

Warmup complete CPU 0 instructions: 50000001 cycles: 17569299 (Simulation time: 0 hr 23 min 45 sec) 

Heartbeat CPU 0 instructions: 60000000 cycles: 26364103 heartbeat IPC: 1.13703 cumulative IPC: 1.13703 (Simulation time: 0 hr 28 min 48 sec) 
Heartbeat CPU 0 instructions: 70000002 cycles: 34797170 heartbeat IPC: 1.18581 cumulative IPC: 1.16091 (Simulation time: 0 hr 33 min 38 sec) 
Heartbeat CPU 0 instructions: 80000003 cycles: 43642354 heartbeat IPC: 1.13056 cumulative IPC: 1.15061 (Simulation time: 0 hr 38 min 25 sec) 
Heartbeat CPU 0 instructions: 90000001 cycles: 52162537 heartbeat IPC: 1.17368 cumulative IPC: 1.1563 (Simulation time: 0 hr 43 min 7 sec) 
Heartbeat CPU 0 instructions: 100000003 cycles: 60993814 heartbeat IPC: 1.13234 cumulative IPC: 1.15142 (Simulation time: 0 hr 47 min 51 sec) 
Finished CPU 0 instructions: 50000002 cycles: 43424515 cumulative IPC: 1.15142 (Simulation time: 0 hr 47 min 51 sec) 

ChampSim completed all CPUs

Region of Interest Statistics

CPU 0 cumulative IPC: 1.15142 instructions: 50000002 cycles: 43424515
L1D TOTAL     ACCESS:   18015000  HIT:   17635467  MISS:     379533
L1D LOAD      ACCESS:    7226587  HIT:    7091147  MISS:     135440
L1D RFO       ACCESS:    3701521  HIT:    3596984  MISS:     104537
L1D PREFETCH  ACCESS:    7086892  HIT:    6947336  MISS:     139556
L1D WRITEBACK ACCESS:          0  HIT:          0  MISS:          0
L1D PREFETCH  REQUESTED:    7232069  ISSUED:    7149243  USEFUL:      44866  USELESS:      94695
L1D AVERAGE MISS LATENCY: 33.401 cycles
L1I TOTAL     ACCESS:   22007564  HIT:   19115853  MISS:    2891711
L1I LOAD      ACCESS:    9035905  HIT:    8984424  MISS:      51481
L1I RFO       ACCESS:          0  HIT:          0  MISS:          0
L1I PREFETCH  ACCESS:   12971659  HIT:   10131429  MISS:    2840230
L1I WRITEBACK ACCESS:          0  HIT:          0  MISS:          0
L1I PREFETCH  REQUESTED:   13020268  ISSUED:   13014464  USEFUL:    1106782  USELESS:    1733414
L1I AVERAGE MISS LATENCY: 14.53 cycles
L2C TOTAL     ACCESS:    4091501  HIT:    3960108  MISS:     131393
L2C LOAD      ACCESS:     136219  HIT:     100293  MISS:      35926
L2C RFO       ACCESS:     104175  HIT:      69219  MISS:      34956
L2C PREFETCH  ACCESS:    3711809  HIT:    3651420  MISS:      60389
L2C WRITEBACK ACCESS:     139298  HIT:     139176  MISS:        122
L2C PREFETCH  REQUESTED:    1084131  ISSUED:    1084093  USEFUL:       4415  USELESS:      56336
L2C AVERAGE MISS LATENCY: 61.5913 cycles
LLC TOTAL     ACCESS:     283391  HIT:     253020  MISS:      30371
LLC LOAD      ACCESS:      35923  HIT:      27854  MISS:       8069
LLC RFO       ACCESS:      34956  HIT:      30322  MISS:       4634
LLC PREFETCH  ACCESS:     166452  HIT:     149011  MISS:      17441
LLC WRITEBACK ACCESS:      46060  HIT:      45833  MISS:        227
LLC PREFETCH  REQUESTED:          0  ISSUED:          0  USEFUL:       1205  USELESS:      15264
LLC AVERAGE MISS LATENCY: 179.897 cycles
Major fault: 0 Minor fault: 4168
CPU 0 L1D next line prefetcher final stats

DRAM Statistics
 CHANNEL 0
 RQ ROW_BUFFER_HIT:       3216  ROW_BUFFER_MISS:      26925
 DBUS_CONGESTED:      15496
 WQ ROW_BUFFER_HIT:        906  ROW_BUFFER_MISS:      13031  FULL:          0

 AVG_CONGESTED_CYCLE: 4

CPU 0 Branch Prediction Accuracy: 94.7729% MPKI: 9.72684 Average ROB Occupancy at Mispredict: 53.7272

Branch types
NOT_BRANCH: 40695383 81.3908%
BRANCH_DIRECT_JUMP: 422107 0.844214%
BRANCH_INDIRECT: 65 0.00013%
BRANCH_CONDITIONAL: 8105005 16.21%
BRANCH_DIRECT_CALL: 374913 0.749826%
BRANCH_INDIRECT_CALL: 13657 0.027314%
BRANCH_RETURN: 388556 0.777112%
BRANCH_OTHER: 0 0%

