Initialize SIGNATURE TABLE
ST_SET: 1
ST_WAY: 256
ST_TAG_BIT: 16
ST_TAG_MASK: ffff

Initialize PATTERN TABLE
PT_SET: 512
PT_WAY: 4
SIG_DELTA_BIT: 7
C_SIG_BIT: 4
C_DELTA_BIT: 4

Initialize PREFETCH FILTER
FILTER_SET: 1024

*** ChampSim Multicore Out-of-Order Simulator ***

Warmup Instructions: 50000000
Simulation Instructions: 50000000
Number of CPUs: 1
LLC sets: 2048
LLC ways: 16
Off-chip DRAM Size: 4096 MB Channels: 1 Width: 64-bit Data Rate: 3200 MT/s

CPU 0 runs /home/ChampSim-master//dpc3_traces/spec_perlbench_001.champsimtrace.xz
L1I D-JOLT instruction prefetcher has been constructed!
CPU 0 L1D next line prefetcher
Heartbeat CPU 0 instructions: 10000000 cycles: 3276187 heartbeat IPC: 3.05233 cumulative IPC: 3.05233 (Simulation time: 0 hr 2 min 40 sec) 
Heartbeat CPU 0 instructions: 20000000 cycles: 6541999 heartbeat IPC: 3.06203 cumulative IPC: 3.05717 (Simulation time: 0 hr 5 min 48 sec) 
Heartbeat CPU 0 instructions: 30000002 cycles: 9860279 heartbeat IPC: 3.01361 cumulative IPC: 3.04251 (Simulation time: 0 hr 8 min 50 sec) 
Heartbeat CPU 0 instructions: 40000002 cycles: 13116626 heartbeat IPC: 3.07093 cumulative IPC: 3.04956 (Simulation time: 0 hr 11 min 15 sec) 
Heartbeat CPU 0 instructions: 50000001 cycles: 16391100 heartbeat IPC: 3.05393 cumulative IPC: 3.05044 (Simulation time: 0 hr 13 min 36 sec) 

Warmup complete CPU 0 instructions: 50000001 cycles: 16391100 (Simulation time: 0 hr 13 min 36 sec) 

Heartbeat CPU 0 instructions: 60000001 cycles: 24741004 heartbeat IPC: 1.19762 cumulative IPC: 1.19762 (Simulation time: 0 hr 16 min 5 sec) 
Heartbeat CPU 0 instructions: 70000000 cycles: 32936690 heartbeat IPC: 1.22015 cumulative IPC: 1.20878 (Simulation time: 0 hr 18 min 33 sec) 
Heartbeat CPU 0 instructions: 80000000 cycles: 41406535 heartbeat IPC: 1.18066 cumulative IPC: 1.19926 (Simulation time: 0 hr 20 min 41 sec) 
Heartbeat CPU 0 instructions: 90000000 cycles: 47164454 heartbeat IPC: 1.73674 cumulative IPC: 1.29983 (Simulation time: 0 hr 22 min 18 sec) 
Heartbeat CPU 0 instructions: 100000002 cycles: 53080055 heartbeat IPC: 1.69045 cumulative IPC: 1.36281 (Simulation time: 0 hr 23 min 55 sec) 
Finished CPU 0 instructions: 50000001 cycles: 36688955 cumulative IPC: 1.36281 (Simulation time: 0 hr 23 min 55 sec) 

ChampSim completed all CPUs

Region of Interest Statistics

CPU 0 cumulative IPC: 1.36281 instructions: 50000001 cycles: 36688955
L1D TOTAL     ACCESS:   20679956  HIT:   20264878  MISS:     415078
L1D LOAD      ACCESS:    7169926  HIT:    6956197  MISS:     213729
L1D RFO       ACCESS:    6542030  HIT:    6523509  MISS:      18521
L1D PREFETCH  ACCESS:    6968000  HIT:    6785172  MISS:     182828
L1D WRITEBACK ACCESS:          0  HIT:          0  MISS:          0
L1D PREFETCH  REQUESTED:    7185689  ISSUED:    7069200  USEFUL:      55161  USELESS:     127663
L1D AVERAGE MISS LATENCY: 59.6863 cycles
L1I TOTAL     ACCESS:   14757319  HIT:   13487651  MISS:    1269668
L1I LOAD      ACCESS:    9176772  HIT:    9114580  MISS:      62192
L1I RFO       ACCESS:          0  HIT:          0  MISS:          0
L1I PREFETCH  ACCESS:    5580547  HIT:    4373071  MISS:    1207476
L1I WRITEBACK ACCESS:          0  HIT:          0  MISS:          0
L1I PREFETCH  REQUESTED:    6001016  ISSUED:    5668949  USEFUL:     541684  USELESS:     665819
L1I AVERAGE MISS LATENCY: 16.4068 cycles
L2C TOTAL     ACCESS:    2370483  HIT:    2197557  MISS:     172926
L2C LOAD      ACCESS:     267025  HIT:     183756  MISS:      83269
L2C RFO       ACCESS:      18272  HIT:      12536  MISS:       5736
L2C PREFETCH  ACCESS:    2006233  HIT:    1922792  MISS:      83441
L2C WRITEBACK ACCESS:      78953  HIT:      78473  MISS:        480
L2C PREFETCH  REQUESTED:    1231587  ISSUED:    1231487  USEFUL:       7277  USELESS:      76207
L2C AVERAGE MISS LATENCY: 118.106 cycles
LLC TOTAL     ACCESS:     419088  HIT:     275627  MISS:     143461
LLC LOAD      ACCESS:      83264  HIT:      32439  MISS:      50825
LLC RFO       ACCESS:       5736  HIT:       2621  MISS:       3115
LLC PREFETCH  ACCESS:     303609  HIT:     214550  MISS:      89059
LLC WRITEBACK ACCESS:      26479  HIT:      26017  MISS:        462
LLC PREFETCH  REQUESTED:          0  ISSUED:          0  USEFUL:      13337  USELESS:      76293
LLC AVERAGE MISS LATENCY: 159.859 cycles
Major fault: 0 Minor fault: 6365
CPU 0 L1D next line prefetcher final stats

DRAM Statistics
 CHANNEL 0
 RQ ROW_BUFFER_HIT:      32094  ROW_BUFFER_MISS:     110904
 DBUS_CONGESTED:      55934
 WQ ROW_BUFFER_HIT:       4232  ROW_BUFFER_MISS:      13048  FULL:          0

 AVG_CONGESTED_CYCLE: 4

CPU 0 Branch Prediction Accuracy: 98.7418% MPKI: 2.47758 Average ROB Occupancy at Mispredict: 79.2713

Branch types
NOT_BRANCH: 40154100 80.3082%
BRANCH_DIRECT_JUMP: 817094 1.63419%
BRANCH_INDIRECT: 303787 0.607574%
BRANCH_CONDITIONAL: 7492103 14.9842%
BRANCH_DIRECT_CALL: 471777 0.943554%
BRANCH_INDIRECT_CALL: 144546 0.289092%
BRANCH_RETURN: 616324 1.23265%
BRANCH_OTHER: 0 0%

