Initialize SIGNATURE TABLE
ST_SET: 1
ST_WAY: 256
ST_TAG_BIT: 16
ST_TAG_MASK: ffff

Initialize PATTERN TABLE
PT_SET: 512
PT_WAY: 4
SIG_DELTA_BIT: 7
C_SIG_BIT: 4
C_DELTA_BIT: 4

Initialize PREFETCH FILTER
FILTER_SET: 1024

*** ChampSim Multicore Out-of-Order Simulator ***

Warmup Instructions: 50000000
Simulation Instructions: 50000000
Number of CPUs: 1
LLC sets: 2048
LLC ways: 16
Off-chip DRAM Size: 4096 MB Channels: 1 Width: 64-bit Data Rate: 3200 MT/s

CPU 0 runs /home/ChampSim-master//dpc3_traces/spec_gobmk_001.champsimtrace.xz
L1I D-JOLT instruction prefetcher has been constructed!
CPU 0 L1D next line prefetcher
Heartbeat CPU 0 instructions: 10000003 cycles: 3506713 heartbeat IPC: 2.85167 cumulative IPC: 2.85167 (Simulation time: 0 hr 2 min 5 sec) 
Heartbeat CPU 0 instructions: 20000002 cycles: 6986816 heartbeat IPC: 2.87348 cumulative IPC: 2.86253 (Simulation time: 0 hr 4 min 18 sec) 
Heartbeat CPU 0 instructions: 30000002 cycles: 10505427 heartbeat IPC: 2.84203 cumulative IPC: 2.85567 (Simulation time: 0 hr 6 min 32 sec) 
Heartbeat CPU 0 instructions: 40000001 cycles: 14024374 heartbeat IPC: 2.84176 cumulative IPC: 2.85218 (Simulation time: 0 hr 8 min 48 sec) 
Heartbeat CPU 0 instructions: 50000001 cycles: 17564348 heartbeat IPC: 2.82488 cumulative IPC: 2.84668 (Simulation time: 0 hr 11 min 2 sec) 

Warmup complete CPU 0 instructions: 50000001 cycles: 17564348 (Simulation time: 0 hr 11 min 2 sec) 

Heartbeat CPU 0 instructions: 60000000 cycles: 26338343 heartbeat IPC: 1.13973 cumulative IPC: 1.13973 (Simulation time: 0 hr 13 min 0 sec) 
Heartbeat CPU 0 instructions: 70000002 cycles: 34749486 heartbeat IPC: 1.1889 cumulative IPC: 1.1638 (Simulation time: 0 hr 14 min 59 sec) 
Heartbeat CPU 0 instructions: 80000003 cycles: 43590262 heartbeat IPC: 1.13112 cumulative IPC: 1.1527 (Simulation time: 0 hr 16 min 37 sec) 
Heartbeat CPU 0 instructions: 90000001 cycles: 52084407 heartbeat IPC: 1.17728 cumulative IPC: 1.15875 (Simulation time: 0 hr 18 min 17 sec) 
Heartbeat CPU 0 instructions: 100000003 cycles: 60898390 heartbeat IPC: 1.13456 cumulative IPC: 1.15383 (Simulation time: 0 hr 19 min 58 sec) 
Finished CPU 0 instructions: 50000002 cycles: 43334042 cumulative IPC: 1.15383 (Simulation time: 0 hr 19 min 58 sec) 

ChampSim completed all CPUs

Region of Interest Statistics

CPU 0 cumulative IPC: 1.15383 instructions: 50000002 cycles: 43334042
L1D TOTAL     ACCESS:   17979797  HIT:   17600290  MISS:     379507
L1D LOAD      ACCESS:    7208979  HIT:    7073843  MISS:     135136
L1D RFO       ACCESS:    3700688  HIT:    3596135  MISS:     104553
L1D PREFETCH  ACCESS:    7070130  HIT:    6930312  MISS:     139818
L1D WRITEBACK ACCESS:          0  HIT:          0  MISS:          0
L1D PREFETCH  REQUESTED:    7214372  ISSUED:    7131633  USEFUL:      45131  USELESS:      94693
L1D AVERAGE MISS LATENCY: 33.7265 cycles
L1I TOTAL     ACCESS:   13831578  HIT:   12469553  MISS:    1362025
L1I LOAD      ACCESS:    8966858  HIT:    8899224  MISS:      67634
L1I RFO       ACCESS:          0  HIT:          0  MISS:          0
L1I PREFETCH  ACCESS:    4864720  HIT:    3570329  MISS:    1294391
L1I WRITEBACK ACCESS:          0  HIT:          0  MISS:          0
L1I PREFETCH  REQUESTED:    5025537  ISSUED:    4950185  USEFUL:     685157  USELESS:     609209
L1I AVERAGE MISS LATENCY: 15.0085 cycles
L2C TOTAL     ACCESS:    2516798  HIT:    2389478  MISS:     127320
L2C LOAD      ACCESS:     152674  HIT:     116896  MISS:      35778
L2C RFO       ACCESS:     104189  HIT:      69907  MISS:      34282
L2C PREFETCH  ACCESS:    2120640  HIT:    2063474  MISS:      57166
L2C WRITEBACK ACCESS:     139295  HIT:     139201  MISS:         94
L2C PREFETCH  REQUESTED:    1081667  ISSUED:    1081577  USEFUL:       5240  USELESS:      52172
L2C AVERAGE MISS LATENCY: 63.9902 cycles
LLC TOTAL     ACCESS:     262836  HIT:     229706  MISS:      33130
LLC LOAD      ACCESS:      35777  HIT:      27614  MISS:       8163
LLC RFO       ACCESS:      34282  HIT:      27985  MISS:       6297
LLC PREFETCH  ACCESS:     147543  HIT:     129100  MISS:      18443
LLC WRITEBACK ACCESS:      45234  HIT:      45007  MISS:        227
LLC PREFETCH  REQUESTED:          0  ISSUED:          0  USEFUL:       1291  USELESS:      16198
LLC AVERAGE MISS LATENCY: 179.44 cycles
Major fault: 0 Minor fault: 4161
CPU 0 L1D next line prefetcher final stats

DRAM Statistics
 CHANNEL 0
 RQ ROW_BUFFER_HIT:       4319  ROW_BUFFER_MISS:      28584
 DBUS_CONGESTED:      17614
 WQ ROW_BUFFER_HIT:       1381  ROW_BUFFER_MISS:      13967  FULL:          0

 AVG_CONGESTED_CYCLE: 4

CPU 0 Branch Prediction Accuracy: 94.7729% MPKI: 9.72684 Average ROB Occupancy at Mispredict: 54.0314

Branch types
NOT_BRANCH: 40695389 81.3908%
BRANCH_DIRECT_JUMP: 422107 0.844214%
BRANCH_INDIRECT: 65 0.00013%
BRANCH_CONDITIONAL: 8105007 16.21%
BRANCH_DIRECT_CALL: 374913 0.749826%
BRANCH_INDIRECT_CALL: 13657 0.027314%
BRANCH_RETURN: 388556 0.777112%
BRANCH_OTHER: 0 0%

