Initialize SIGNATURE TABLE
ST_SET: 1
ST_WAY: 256
ST_TAG_BIT: 16
ST_TAG_MASK: ffff

Initialize PATTERN TABLE
PT_SET: 512
PT_WAY: 4
SIG_DELTA_BIT: 7
C_SIG_BIT: 4
C_DELTA_BIT: 4

Initialize PREFETCH FILTER
FILTER_SET: 1024

*** ChampSim Multicore Out-of-Order Simulator ***

Warmup Instructions: 50000000
Simulation Instructions: 50000000
Number of CPUs: 1
LLC sets: 2048
LLC ways: 16
Off-chip DRAM Size: 4096 MB Channels: 1 Width: 64-bit Data Rate: 3200 MT/s

CPU 0 runs /home/ChampSim-master//dpc3_traces/spec_perlbench_001.champsimtrace.xz
L1I D-JOLT instruction prefetcher has been constructed!
CPU 0 L1D next line prefetcher
Heartbeat CPU 0 instructions: 10000000 cycles: 3275967 heartbeat IPC: 3.05253 cumulative IPC: 3.05253 (Simulation time: 0 hr 2 min 44 sec) 
Heartbeat CPU 0 instructions: 20000000 cycles: 6541622 heartbeat IPC: 3.06217 cumulative IPC: 3.05735 (Simulation time: 0 hr 5 min 51 sec) 
Heartbeat CPU 0 instructions: 30000002 cycles: 9859927 heartbeat IPC: 3.01359 cumulative IPC: 3.04262 (Simulation time: 0 hr 8 min 59 sec) 
Heartbeat CPU 0 instructions: 40000002 cycles: 13115960 heartbeat IPC: 3.07122 cumulative IPC: 3.04972 (Simulation time: 0 hr 11 min 26 sec) 
Heartbeat CPU 0 instructions: 50000001 cycles: 16390417 heartbeat IPC: 3.05394 cumulative IPC: 3.05056 (Simulation time: 0 hr 13 min 53 sec) 

Warmup complete CPU 0 instructions: 50000001 cycles: 16390417 (Simulation time: 0 hr 13 min 53 sec) 

Heartbeat CPU 0 instructions: 60000001 cycles: 24723061 heartbeat IPC: 1.2001 cumulative IPC: 1.2001 (Simulation time: 0 hr 16 min 13 sec) 
Heartbeat CPU 0 instructions: 70000003 cycles: 32912988 heartbeat IPC: 1.22101 cumulative IPC: 1.21047 (Simulation time: 0 hr 18 min 52 sec) 
Heartbeat CPU 0 instructions: 80000000 cycles: 41376476 heartbeat IPC: 1.18155 cumulative IPC: 1.20067 (Simulation time: 0 hr 21 min 16 sec) 
Heartbeat CPU 0 instructions: 90000000 cycles: 47127821 heartbeat IPC: 1.73872 cumulative IPC: 1.30135 (Simulation time: 0 hr 23 min 3 sec) 
Heartbeat CPU 0 instructions: 100000002 cycles: 53030031 heartbeat IPC: 1.69428 cumulative IPC: 1.36464 (Simulation time: 0 hr 24 min 44 sec) 
Finished CPU 0 instructions: 50000001 cycles: 36639614 cumulative IPC: 1.36464 (Simulation time: 0 hr 24 min 44 sec) 

ChampSim completed all CPUs

Region of Interest Statistics

CPU 0 cumulative IPC: 1.36464 instructions: 50000001 cycles: 36639614
L1D TOTAL     ACCESS:   20678118  HIT:   20263034  MISS:     415084
L1D LOAD      ACCESS:    7169118  HIT:    6955362  MISS:     213756
L1D RFO       ACCESS:    6542012  HIT:    6523475  MISS:      18537
L1D PREFETCH  ACCESS:    6966988  HIT:    6784197  MISS:     182791
L1D WRITEBACK ACCESS:          0  HIT:          0  MISS:          0
L1D PREFETCH  REQUESTED:    7184929  ISSUED:    7068513  USEFUL:      55119  USELESS:     127667
L1D AVERAGE MISS LATENCY: 59.3127 cycles
L1I TOTAL     ACCESS:   15213973  HIT:   14042756  MISS:    1171217
L1I LOAD      ACCESS:    9167368  HIT:    9097223  MISS:      70145
L1I RFO       ACCESS:          0  HIT:          0  MISS:          0
L1I PREFETCH  ACCESS:    6046605  HIT:    4945533  MISS:    1101072
L1I WRITEBACK ACCESS:          0  HIT:          0  MISS:          0
L1I PREFETCH  REQUESTED:    6655031  ISSUED:    6223661  USEFUL:     514356  USELESS:     586748
L1I AVERAGE MISS LATENCY: 16.1985 cycles
L2C TOTAL     ACCESS:    2242565  HIT:    2071067  MISS:     171498
L2C LOAD      ACCESS:     256582  HIT:     174106  MISS:      82476
L2C RFO       ACCESS:      18289  HIT:      12610  MISS:       5679
L2C PREFETCH  ACCESS:    1888730  HIT:    1805850  MISS:      82880
L2C WRITEBACK ACCESS:      78964  HIT:      78501  MISS:        463
L2C PREFETCH  REQUESTED:    1228603  ISSUED:    1228526  USEFUL:       7116  USELESS:      75827
L2C AVERAGE MISS LATENCY: 118.367 cycles
LLC TOTAL     ACCESS:     425833  HIT:     281687  MISS:     144146
LLC LOAD      ACCESS:      82472  HIT:      32230  MISS:      50242
LLC RFO       ACCESS:       5679  HIT:       2572  MISS:       3107
LLC PREFETCH  ACCESS:     311339  HIT:     221008  MISS:      90331
LLC WRITEBACK ACCESS:      26343  HIT:      25877  MISS:        466
LLC PREFETCH  REQUESTED:          0  ISSUED:          0  USEFUL:      13717  USELESS:      76400
LLC AVERAGE MISS LATENCY: 160.151 cycles
Major fault: 0 Minor fault: 6366
CPU 0 L1D next line prefetcher final stats

DRAM Statistics
 CHANNEL 0
 RQ ROW_BUFFER_HIT:      32407  ROW_BUFFER_MISS:     111271
 DBUS_CONGESTED:      56407
 WQ ROW_BUFFER_HIT:       4458  ROW_BUFFER_MISS:      13008  FULL:          0

 AVG_CONGESTED_CYCLE: 4

CPU 0 Branch Prediction Accuracy: 98.7418% MPKI: 2.47758 Average ROB Occupancy at Mispredict: 79.3258

Branch types
NOT_BRANCH: 40154100 80.3082%
BRANCH_DIRECT_JUMP: 817094 1.63419%
BRANCH_INDIRECT: 303787 0.607574%
BRANCH_CONDITIONAL: 7492103 14.9842%
BRANCH_DIRECT_CALL: 471777 0.943554%
BRANCH_INDIRECT_CALL: 144546 0.289092%
BRANCH_RETURN: 616324 1.23265%
BRANCH_OTHER: 0 0%

