Initialize SIGNATURE TABLE
ST_SET: 1
ST_WAY: 256
ST_TAG_BIT: 16
ST_TAG_MASK: ffff

Initialize PATTERN TABLE
PT_SET: 512
PT_WAY: 4
SIG_DELTA_BIT: 7
C_SIG_BIT: 4
C_DELTA_BIT: 4

Initialize PREFETCH FILTER
FILTER_SET: 1024

*** ChampSim Multicore Out-of-Order Simulator ***

Warmup Instructions: 50000000
Simulation Instructions: 50000000
Number of CPUs: 1
LLC sets: 2048
LLC ways: 16
Off-chip DRAM Size: 4096 MB Channels: 1 Width: 64-bit Data Rate: 3200 MT/s

CPU 0 runs /home/ChampSim-master//dpc3_traces/spec_gcc_001.champsimtrace.xz
L1I D-JOLT instruction prefetcher has been constructed!
CPU 0 L1D next line prefetcher
Heartbeat CPU 0 instructions: 10000003 cycles: 3219092 heartbeat IPC: 3.10647 cumulative IPC: 3.10647 (Simulation time: 0 hr 2 min 43 sec) 
Heartbeat CPU 0 instructions: 20000002 cycles: 6463721 heartbeat IPC: 3.08202 cumulative IPC: 3.09419 (Simulation time: 0 hr 5 min 44 sec) 
Heartbeat CPU 0 instructions: 30000000 cycles: 9664448 heartbeat IPC: 3.12429 cumulative IPC: 3.10416 (Simulation time: 0 hr 8 min 42 sec) 
Heartbeat CPU 0 instructions: 40000001 cycles: 12904569 heartbeat IPC: 3.0863 cumulative IPC: 3.09968 (Simulation time: 0 hr 11 min 42 sec) 
Heartbeat CPU 0 instructions: 50000001 cycles: 16144652 heartbeat IPC: 3.08634 cumulative IPC: 3.097 (Simulation time: 0 hr 14 min 21 sec) 

Warmup complete CPU 0 instructions: 50000001 cycles: 16144652 (Simulation time: 0 hr 14 min 21 sec) 

Heartbeat CPU 0 instructions: 60000000 cycles: 23997687 heartbeat IPC: 1.27339 cumulative IPC: 1.27339 (Simulation time: 0 hr 16 min 36 sec) 
Heartbeat CPU 0 instructions: 70000002 cycles: 31923131 heartbeat IPC: 1.26176 cumulative IPC: 1.26755 (Simulation time: 0 hr 19 min 3 sec) 
Heartbeat CPU 0 instructions: 80000000 cycles: 39462119 heartbeat IPC: 1.32644 cumulative IPC: 1.28659 (Simulation time: 0 hr 21 min 13 sec) 
Heartbeat CPU 0 instructions: 90000001 cycles: 47363669 heartbeat IPC: 1.26557 cumulative IPC: 1.28127 (Simulation time: 0 hr 23 min 17 sec) 
Heartbeat CPU 0 instructions: 100000000 cycles: 55560376 heartbeat IPC: 1.22 cumulative IPC: 1.26853 (Simulation time: 0 hr 25 min 0 sec) 
Finished CPU 0 instructions: 50000000 cycles: 39415728 cumulative IPC: 1.26853 (Simulation time: 0 hr 25 min 0 sec) 

ChampSim completed all CPUs

Region of Interest Statistics

CPU 0 cumulative IPC: 1.26853 instructions: 50000000 cycles: 39415728
L1D TOTAL     ACCESS:   19321713  HIT:   18216547  MISS:    1105166
L1D LOAD      ACCESS:    7232214  HIT:    6752847  MISS:     479367
L1D RFO       ACCESS:    5116867  HIT:    5037196  MISS:      79671
L1D PREFETCH  ACCESS:    6972632  HIT:    6426504  MISS:     546128
L1D WRITEBACK ACCESS:          0  HIT:          0  MISS:          0
L1D PREFETCH  REQUESTED:    7275874  ISSUED:    7177987  USEFUL:     275898  USELESS:     270242
L1D AVERAGE MISS LATENCY: 25.6271 cycles
L1I TOTAL     ACCESS:   13910333  HIT:   13166398  MISS:     743935
L1I LOAD      ACCESS:    9296380  HIT:    9240365  MISS:      56015
L1I RFO       ACCESS:          0  HIT:          0  MISS:          0
L1I PREFETCH  ACCESS:    4613953  HIT:    3926033  MISS:     687920
L1I WRITEBACK ACCESS:          0  HIT:          0  MISS:          0
L1I PREFETCH  REQUESTED:    4762796  ISSUED:    4755305  USEFUL:     380945  USELESS:     307034
L1I AVERAGE MISS LATENCY: 18.4427 cycles
L2C TOTAL     ACCESS:    3057321  HIT:    2807066  MISS:     250255
L2C LOAD      ACCESS:     504438  HIT:     415415  MISS:      89023
L2C RFO       ACCESS:      74998  HIT:      36635  MISS:      38363
L2C PREFETCH  ACCESS:    2224128  HIT:    2101626  MISS:     122502
L2C WRITEBACK ACCESS:     253757  HIT:     253390  MISS:        367
L2C PREFETCH  REQUESTED:    1871148  ISSUED:    1871053  USEFUL:      32628  USELESS:      89681
L2C AVERAGE MISS LATENCY: 63.1729 cycles
LLC TOTAL     ACCESS:     666542  HIT:     592126  MISS:      74416
LLC LOAD      ACCESS:      88839  HIT:      77043  MISS:      11796
LLC RFO       ACCESS:      38361  HIT:      17524  MISS:      20837
LLC PREFETCH  ACCESS:     447311  HIT:     406531  MISS:      40780
LLC WRITEBACK ACCESS:      92031  HIT:      91028  MISS:       1003
LLC PREFETCH  REQUESTED:          0  ISSUED:          0  USEFUL:      13631  USELESS:      29325
LLC AVERAGE MISS LATENCY: 187.195 cycles
Major fault: 0 Minor fault: 6867
CPU 0 L1D next line prefetcher final stats

DRAM Statistics
 CHANNEL 0
 RQ ROW_BUFFER_HIT:      19705  ROW_BUFFER_MISS:      53698
 DBUS_CONGESTED:      35979
 WQ ROW_BUFFER_HIT:       4504  ROW_BUFFER_MISS:      23435  FULL:          0

 AVG_CONGESTED_CYCLE: 6

CPU 0 Branch Prediction Accuracy: 95.8872% MPKI: 9.67286 Average ROB Occupancy at Mispredict: 67.0014

Branch types
NOT_BRANCH: 38240102 76.4802%
BRANCH_DIRECT_JUMP: 653296 1.30659%
BRANCH_INDIRECT: 37098 0.074196%
BRANCH_CONDITIONAL: 8897819 17.7956%
BRANCH_DIRECT_CALL: 992620 1.98524%
BRANCH_INDIRECT_CALL: 93046 0.186092%
BRANCH_RETURN: 1085674 2.17135%
BRANCH_OTHER: 0 0%

