Initialize SIGNATURE TABLE
ST_SET: 1
ST_WAY: 256
ST_TAG_BIT: 16
ST_TAG_MASK: ffff

Initialize PATTERN TABLE
PT_SET: 512
PT_WAY: 4
SIG_DELTA_BIT: 7
C_SIG_BIT: 4
C_DELTA_BIT: 4

Initialize PREFETCH FILTER
FILTER_SET: 1024

*** ChampSim Multicore Out-of-Order Simulator ***

Warmup Instructions: 50000000
Simulation Instructions: 50000000
Number of CPUs: 1
LLC sets: 2048
LLC ways: 16
Off-chip DRAM Size: 4096 MB Channels: 1 Width: 64-bit Data Rate: 3200 MT/s

CPU 0 runs /home/ChampSim-master//dpc3_traces/spec_gcc_003.champsimtrace.xz
L1I D-JOLT instruction prefetcher has been constructed!
CPU 0 L1D next line prefetcher
Heartbeat CPU 0 instructions: 10000001 cycles: 3486008 heartbeat IPC: 2.86861 cumulative IPC: 2.86861 (Simulation time: 0 hr 2 min 39 sec) 
Heartbeat CPU 0 instructions: 20000000 cycles: 6955692 heartbeat IPC: 2.88211 cumulative IPC: 2.87534 (Simulation time: 0 hr 5 min 17 sec) 
Heartbeat CPU 0 instructions: 30000002 cycles: 10401373 heartbeat IPC: 2.90218 cumulative IPC: 2.88423 (Simulation time: 0 hr 7 min 55 sec) 
Heartbeat CPU 0 instructions: 40000000 cycles: 13867573 heartbeat IPC: 2.885 cumulative IPC: 2.88443 (Simulation time: 0 hr 10 min 39 sec) 
Heartbeat CPU 0 instructions: 50000001 cycles: 17176256 heartbeat IPC: 3.02235 cumulative IPC: 2.911 (Simulation time: 0 hr 13 min 7 sec) 

Warmup complete CPU 0 instructions: 50000001 cycles: 17176256 (Simulation time: 0 hr 13 min 7 sec) 

Heartbeat CPU 0 instructions: 60000000 cycles: 56855818 heartbeat IPC: 0.252019 cumulative IPC: 0.252019 (Simulation time: 0 hr 18 min 28 sec) 
Heartbeat CPU 0 instructions: 70000000 cycles: 99567690 heartbeat IPC: 0.234127 cumulative IPC: 0.242744 (Simulation time: 0 hr 23 min 40 sec) 
Heartbeat CPU 0 instructions: 80000002 cycles: 143241662 heartbeat IPC: 0.228969 cumulative IPC: 0.237972 (Simulation time: 0 hr 28 min 9 sec) 
Heartbeat CPU 0 instructions: 90000002 cycles: 180135930 heartbeat IPC: 0.271045 cumulative IPC: 0.24546 (Simulation time: 0 hr 29 min 44 sec) 
Heartbeat CPU 0 instructions: 100000001 cycles: 226574809 heartbeat IPC: 0.215337 cumulative IPC: 0.238779 (Simulation time: 0 hr 30 min 30 sec) 
Finished CPU 0 instructions: 50000000 cycles: 209398553 cumulative IPC: 0.238779 (Simulation time: 0 hr 30 min 30 sec) 

ChampSim completed all CPUs

Region of Interest Statistics

CPU 0 cumulative IPC: 0.238779 instructions: 50000000 cycles: 209398553
L1D TOTAL     ACCESS:   16799807  HIT:   11075529  MISS:    5724278
L1D LOAD      ACCESS:    4544441  HIT:    4161267  MISS:     383174
L1D RFO       ACCESS:    8201205  HIT:    3149507  MISS:    5051698
L1D PREFETCH  ACCESS:    4054161  HIT:    3764755  MISS:     289406
L1D WRITEBACK ACCESS:          0  HIT:          0  MISS:          0
L1D PREFETCH  REQUESTED:    4561644  ISSUED:    4501569  USEFUL:     152109  USELESS:     137477
L1D AVERAGE MISS LATENCY: 499.779 cycles
L1I TOTAL     ACCESS:   15800796  HIT:   14429700  MISS:    1371096
L1I LOAD      ACCESS:   11290008  HIT:   11229733  MISS:      60275
L1I RFO       ACCESS:          0  HIT:          0  MISS:          0
L1I PREFETCH  ACCESS:    4510788  HIT:    3199967  MISS:    1310821
L1I WRITEBACK ACCESS:          0  HIT:          0  MISS:          0
L1I PREFETCH  REQUESTED:    5225494  ISSUED:    4945466  USEFUL:     809069  USELESS:     501748
L1I AVERAGE MISS LATENCY: 60.2997 cycles
L2C TOTAL     ACCESS:   12664151  HIT:    6568900  MISS:    6095251
L2C LOAD      ACCESS:     232759  HIT:      64060  MISS:     168699
L2C RFO       ACCESS:    5049817  HIT:       6436  MISS:    5043381
L2C PREFETCH  ACCESS:    2223707  HIT:    1341156  MISS:     882551
L2C WRITEBACK ACCESS:    5157868  HIT:    5157248  MISS:        620
L2C PREFETCH  REQUESTED:    2045974  ISSUED:    2045944  USEFUL:      24572  USELESS:     855082
L2C AVERAGE MISS LATENCY: 469.857 cycles
LLC TOTAL     ACCESS:   12013182  HIT:    7263576  MISS:    4749606
LLC LOAD      ACCESS:     168659  HIT:     126815  MISS:      41844
LLC RFO       ACCESS:    5043380  HIT:     644732  MISS:    4398648
LLC PREFETCH  ACCESS:    1667394  HIT:    1358280  MISS:     309114
LLC WRITEBACK ACCESS:    5133749  HIT:    5133749  MISS:          0
LLC PREFETCH  REQUESTED:          0  ISSUED:          0  USEFUL:      11287  USELESS:     297702
LLC AVERAGE MISS LATENCY: 574.683 cycles
Major fault: 0 Minor fault: 2819
CPU 0 L1D next line prefetcher final stats

DRAM Statistics
 CHANNEL 0
 RQ ROW_BUFFER_HIT:    1445286  ROW_BUFFER_MISS:    3304057
 DBUS_CONGESTED:    8186009
 WQ ROW_BUFFER_HIT:    1172857  ROW_BUFFER_MISS:    3255406  FULL:          0

 AVG_CONGESTED_CYCLE: 6

CPU 0 Branch Prediction Accuracy: 99.665% MPKI: 0.78342 Average ROB Occupancy at Mispredict: 123.672

Branch types
NOT_BRANCH: 38305856 76.6117%
BRANCH_DIRECT_JUMP: 384281 0.768562%
BRANCH_INDIRECT: 71949 0.143898%
BRANCH_CONDITIONAL: 9879825 19.7597%
BRANCH_DIRECT_CALL: 650586 1.30117%
BRANCH_INDIRECT_CALL: 28456 0.056912%
BRANCH_RETURN: 679046 1.35809%
BRANCH_OTHER: 0 0%

