Initialize SIGNATURE TABLE
ST_SET: 1
ST_WAY: 256
ST_TAG_BIT: 16
ST_TAG_MASK: ffff

Initialize PATTERN TABLE
PT_SET: 512
PT_WAY: 4
SIG_DELTA_BIT: 7
C_SIG_BIT: 4
C_DELTA_BIT: 4

Initialize PREFETCH FILTER
FILTER_SET: 1024

*** ChampSim Multicore Out-of-Order Simulator ***

Warmup Instructions: 50000000
Simulation Instructions: 50000000
Number of CPUs: 1
LLC sets: 2048
LLC ways: 16
Off-chip DRAM Size: 4096 MB Channels: 1 Width: 64-bit Data Rate: 3200 MT/s

CPU 0 runs /home/ChampSim-master//dpc3_traces/spec_gobmk_002.champsimtrace.xz
CPU 0 EPI prefetcher
CPU 0 L1D next line prefetcher
Heartbeat CPU 0 instructions: 10000001 cycles: 3287528 heartbeat IPC: 3.0418 cumulative IPC: 3.0418 (Simulation time: 0 hr 2 min 46 sec) 
Heartbeat CPU 0 instructions: 20000000 cycles: 6619155 heartbeat IPC: 3.00154 cumulative IPC: 3.02153 (Simulation time: 0 hr 5 min 57 sec) 
Heartbeat CPU 0 instructions: 30000000 cycles: 9957172 heartbeat IPC: 2.99579 cumulative IPC: 3.0129 (Simulation time: 0 hr 9 min 14 sec) 
Heartbeat CPU 0 instructions: 40000000 cycles: 13266618 heartbeat IPC: 3.02165 cumulative IPC: 3.01509 (Simulation time: 0 hr 12 min 13 sec) 
Heartbeat CPU 0 instructions: 50000003 cycles: 16530190 heartbeat IPC: 3.06413 cumulative IPC: 3.02477 (Simulation time: 0 hr 15 min 3 sec) 

Warmup complete CPU 0 instructions: 50000003 cycles: 16530190 (Simulation time: 0 hr 15 min 3 sec) 

Heartbeat CPU 0 instructions: 60000003 cycles: 24025060 heartbeat IPC: 1.33425 cumulative IPC: 1.33425 (Simulation time: 0 hr 17 min 19 sec) 
Heartbeat CPU 0 instructions: 70000003 cycles: 31470415 heartbeat IPC: 1.34312 cumulative IPC: 1.33867 (Simulation time: 0 hr 19 min 33 sec) 
Heartbeat CPU 0 instructions: 80000000 cycles: 38781401 heartbeat IPC: 1.3678 cumulative IPC: 1.34824 (Simulation time: 0 hr 21 min 47 sec) 
Heartbeat CPU 0 instructions: 90000001 cycles: 46402311 heartbeat IPC: 1.31218 cumulative IPC: 1.33904 (Simulation time: 0 hr 23 min 50 sec) 
Heartbeat CPU 0 instructions: 100000003 cycles: 54228799 heartbeat IPC: 1.27771 cumulative IPC: 1.32631 (Simulation time: 0 hr 25 min 43 sec) 
Finished CPU 0 instructions: 50000000 cycles: 37698609 cumulative IPC: 1.32631 (Simulation time: 0 hr 25 min 43 sec) 

ChampSim completed all CPUs

Region of Interest Statistics

CPU 0 cumulative IPC: 1.32631 instructions: 50000000 cycles: 37698609
L1D TOTAL     ACCESS:   17647108  HIT:   17523973  MISS:     123135
L1D LOAD      ACCESS:    6667832  HIT:    6633576  MISS:      34256
L1D RFO       ACCESS:    4389776  HIT:    4347070  MISS:      42706
L1D PREFETCH  ACCESS:    6589500  HIT:    6543327  MISS:      46173
L1D WRITEBACK ACCESS:          0  HIT:          0  MISS:          0
L1D PREFETCH  REQUESTED:    6670222  ISSUED:    6602986  USEFUL:      17106  USELESS:      29249
L1D AVERAGE MISS LATENCY: 50.2219 cycles
L1I TOTAL     ACCESS:   40049592  HIT:   38772099  MISS:    1277493
L1I LOAD      ACCESS:    8821492  HIT:    8659024  MISS:     162468
L1I RFO       ACCESS:          0  HIT:          0  MISS:          0
L1I PREFETCH  ACCESS:   31228100  HIT:   30113075  MISS:    1115025
L1I WRITEBACK ACCESS:          0  HIT:          0  MISS:          0
L1I PREFETCH  REQUESTED:   37968131  ISSUED:   37968131  USEFUL:     628575  USELESS:     486484
L1I AVERAGE MISS LATENCY: 14.2651 cycles
L2C TOTAL     ACCESS:    2172525  HIT:    2135033  MISS:      37492
L2C LOAD      ACCESS:     166683  HIT:     152957  MISS:      13726
L2C RFO       ACCESS:      42575  HIT:      39827  MISS:       2748
L2C PREFETCH  ACCESS:    1889052  HIT:    1868177  MISS:      20875
L2C WRITEBACK ACCESS:      74215  HIT:      74072  MISS:        143
L2C PREFETCH  REQUESTED:    1243148  ISSUED:    1243144  USEFUL:       2215  USELESS:      19044
L2C AVERAGE MISS LATENCY: 124.729 cycles
LLC TOTAL     ACCESS:      92521  HIT:      59291  MISS:      33230
LLC LOAD      ACCESS:      13726  HIT:       5027  MISS:       8699
LLC RFO       ACCESS:       2748  HIT:       1125  MISS:       1623
LLC PREFETCH  ACCESS:      58154  HIT:      35813  MISS:      22341
LLC WRITEBACK ACCESS:      17893  HIT:      17326  MISS:        567
LLC PREFETCH  REQUESTED:          0  ISSUED:          0  USEFUL:       2238  USELESS:      19766
LLC AVERAGE MISS LATENCY: 182.384 cycles
Major fault: 0 Minor fault: 2776
CPU 0 L1I EPI prefetcher final stats
CPU 0 L1D next line prefetcher final stats

DRAM Statistics
 CHANNEL 0
 RQ ROW_BUFFER_HIT:       2647  ROW_BUFFER_MISS:      30016
 DBUS_CONGESTED:      15789
 WQ ROW_BUFFER_HIT:        761  ROW_BUFFER_MISS:      13235  FULL:          0

 AVG_CONGESTED_CYCLE: 4

CPU 0 Branch Prediction Accuracy: 93.9974% MPKI: 10.2447 Average ROB Occupancy at Mispredict: 39.3693

Branch types
NOT_BRANCH: 41466058 82.9321%
BRANCH_DIRECT_JUMP: 464313 0.928626%
BRANCH_INDIRECT: 32 6.4e-05%
BRANCH_CONDITIONAL: 7069453 14.1389%
BRANCH_DIRECT_CALL: 499587 0.999174%
BRANCH_INDIRECT_CALL: 342 0.000684%
BRANCH_RETURN: 499906 0.999812%
BRANCH_OTHER: 0 0%

