Initialize SIGNATURE TABLE
ST_SET: 1
ST_WAY: 256
ST_TAG_BIT: 16
ST_TAG_MASK: ffff

Initialize PATTERN TABLE
PT_SET: 512
PT_WAY: 4
SIG_DELTA_BIT: 7
C_SIG_BIT: 4
C_DELTA_BIT: 4

Initialize PREFETCH FILTER
FILTER_SET: 1024

*** ChampSim Multicore Out-of-Order Simulator ***

Warmup Instructions: 50000000
Simulation Instructions: 50000000
Number of CPUs: 1
LLC sets: 2048
LLC ways: 16
Off-chip DRAM Size: 4096 MB Channels: 1 Width: 64-bit Data Rate: 3200 MT/s

CPU 0 runs /home/ChampSim-master//dpc3_traces/spec_gcc_003.champsimtrace.xz
L1I D-JOLT instruction prefetcher has been constructed!
CPU 0 L1D next line prefetcher
Heartbeat CPU 0 instructions: 10000001 cycles: 3477616 heartbeat IPC: 2.87553 cumulative IPC: 2.87553 (Simulation time: 0 hr 2 min 29 sec) 
Heartbeat CPU 0 instructions: 20000000 cycles: 6942504 heartbeat IPC: 2.8861 cumulative IPC: 2.88081 (Simulation time: 0 hr 4 min 59 sec) 
Heartbeat CPU 0 instructions: 30000002 cycles: 10381504 heartbeat IPC: 2.90782 cumulative IPC: 2.88976 (Simulation time: 0 hr 7 min 19 sec) 
Heartbeat CPU 0 instructions: 40000000 cycles: 13847875 heartbeat IPC: 2.88486 cumulative IPC: 2.88853 (Simulation time: 0 hr 9 min 44 sec) 
Heartbeat CPU 0 instructions: 50000001 cycles: 17156092 heartbeat IPC: 3.02278 cumulative IPC: 2.91442 (Simulation time: 0 hr 12 min 0 sec) 

Warmup complete CPU 0 instructions: 50000001 cycles: 17156092 (Simulation time: 0 hr 12 min 0 sec) 

Heartbeat CPU 0 instructions: 60000000 cycles: 56835073 heartbeat IPC: 0.252023 cumulative IPC: 0.252023 (Simulation time: 0 hr 16 min 48 sec) 
Heartbeat CPU 0 instructions: 70000000 cycles: 99519524 heartbeat IPC: 0.234277 cumulative IPC: 0.242826 (Simulation time: 0 hr 21 min 43 sec) 
Heartbeat CPU 0 instructions: 80000003 cycles: 143203700 heartbeat IPC: 0.228916 cumulative IPC: 0.238005 (Simulation time: 0 hr 25 min 47 sec) 
Heartbeat CPU 0 instructions: 90000002 cycles: 180196209 heartbeat IPC: 0.270325 cumulative IPC: 0.245338 (Simulation time: 0 hr 27 min 0 sec) 
Heartbeat CPU 0 instructions: 100000001 cycles: 226711542 heartbeat IPC: 0.214983 cumulative IPC: 0.2386 (Simulation time: 0 hr 27 min 42 sec) 
Finished CPU 0 instructions: 50000000 cycles: 209555450 cumulative IPC: 0.2386 (Simulation time: 0 hr 27 min 42 sec) 

ChampSim completed all CPUs

Region of Interest Statistics

CPU 0 cumulative IPC: 0.2386 instructions: 50000000 cycles: 209555450
L1D TOTAL     ACCESS:   16804136  HIT:   11079844  MISS:    5724292
L1D LOAD      ACCESS:    4546013  HIT:    4162994  MISS:     383019
L1D RFO       ACCESS:    8201528  HIT:    3149894  MISS:    5051634
L1D PREFETCH  ACCESS:    4056595  HIT:    3766956  MISS:     289639
L1D WRITEBACK ACCESS:          0  HIT:          0  MISS:          0
L1D PREFETCH  REQUESTED:    4563340  ISSUED:    4503558  USEFUL:     152264  USELESS:     137555
L1D AVERAGE MISS LATENCY: 500.056 cycles
L1I TOTAL     ACCESS:   15692027  HIT:   14305014  MISS:    1387013
L1I LOAD      ACCESS:   11287925  HIT:   11222385  MISS:      65540
L1I RFO       ACCESS:          0  HIT:          0  MISS:          0
L1I PREFETCH  ACCESS:    4404102  HIT:    3082629  MISS:    1321473
L1I WRITEBACK ACCESS:          0  HIT:          0  MISS:          0
L1I PREFETCH  REQUESTED:    5008611  ISSUED:    4739770  USEFUL:     807047  USELESS:     514423
L1I AVERAGE MISS LATENCY: 62.0132 cycles
L2C TOTAL     ACCESS:   12685860  HIT:    6586199  MISS:    6099661
L2C LOAD      ACCESS:     237215  HIT:      65293  MISS:     171922
L2C RFO       ACCESS:    5049817  HIT:       6446  MISS:    5043371
L2C PREFETCH  ACCESS:    2240941  HIT:    1357242  MISS:     883699
L2C WRITEBACK ACCESS:    5157887  HIT:    5157218  MISS:        669
L2C PREFETCH  REQUESTED:    2027505  ISSUED:    2027464  USEFUL:      25693  USELESS:     855124
L2C AVERAGE MISS LATENCY: 469.925 cycles
LLC TOTAL     ACCESS:   12010944  HIT:    7256164  MISS:    4754780
LLC LOAD      ACCESS:     171867  HIT:     128639  MISS:      43228
LLC RFO       ACCESS:    5043371  HIT:     641107  MISS:    4402264
LLC PREFETCH  ACCESS:    1661913  HIT:    1352625  MISS:     309288
LLC WRITEBACK ACCESS:    5133793  HIT:    5133793  MISS:          0
LLC PREFETCH  REQUESTED:          0  ISSUED:          0  USEFUL:      11946  USELESS:     297240
LLC AVERAGE MISS LATENCY: 574.615 cycles
Major fault: 0 Minor fault: 2819
CPU 0 L1D next line prefetcher final stats

DRAM Statistics
 CHANNEL 0
 RQ ROW_BUFFER_HIT:    1446257  ROW_BUFFER_MISS:    3308250
 DBUS_CONGESTED:    8197773
 WQ ROW_BUFFER_HIT:    1174515  ROW_BUFFER_MISS:    3257441  FULL:         20

 AVG_CONGESTED_CYCLE: 6

CPU 0 Branch Prediction Accuracy: 99.665% MPKI: 0.78342 Average ROB Occupancy at Mispredict: 123.801

Branch types
NOT_BRANCH: 38305856 76.6117%
BRANCH_DIRECT_JUMP: 384281 0.768562%
BRANCH_INDIRECT: 71949 0.143898%
BRANCH_CONDITIONAL: 9879825 19.7597%
BRANCH_DIRECT_CALL: 650586 1.30117%
BRANCH_INDIRECT_CALL: 28456 0.056912%
BRANCH_RETURN: 679046 1.35809%
BRANCH_OTHER: 0 0%

