Initialize SIGNATURE TABLE
ST_SET: 1
ST_WAY: 256
ST_TAG_BIT: 16
ST_TAG_MASK: ffff

Initialize PATTERN TABLE
PT_SET: 512
PT_WAY: 4
SIG_DELTA_BIT: 7
C_SIG_BIT: 4
C_DELTA_BIT: 4

Initialize PREFETCH FILTER
FILTER_SET: 1024

*** ChampSim Multicore Out-of-Order Simulator ***

Warmup Instructions: 50000000
Simulation Instructions: 50000000
Number of CPUs: 1
LLC sets: 2048
LLC ways: 16
Off-chip DRAM Size: 4096 MB Channels: 1 Width: 64-bit Data Rate: 3200 MT/s

CPU 0 runs /home/ChampSim-master//dpc3_traces/spec_perlbench_001.champsimtrace.xz
L1I D-JOLT instruction prefetcher has been constructed!
CPU 0 L1D next line prefetcher
Heartbeat CPU 0 instructions: 10000000 cycles: 3276142 heartbeat IPC: 3.05237 cumulative IPC: 3.05237 (Simulation time: 0 hr 2 min 30 sec) 
Heartbeat CPU 0 instructions: 20000000 cycles: 6541868 heartbeat IPC: 3.06211 cumulative IPC: 3.05723 (Simulation time: 0 hr 5 min 15 sec) 
Heartbeat CPU 0 instructions: 30000002 cycles: 9861041 heartbeat IPC: 3.0128 cumulative IPC: 3.04228 (Simulation time: 0 hr 8 min 17 sec) 
Heartbeat CPU 0 instructions: 40000002 cycles: 13117351 heartbeat IPC: 3.07096 cumulative IPC: 3.0494 (Simulation time: 0 hr 10 min 51 sec) 
Heartbeat CPU 0 instructions: 50000001 cycles: 16392093 heartbeat IPC: 3.05368 cumulative IPC: 3.05025 (Simulation time: 0 hr 13 min 19 sec) 

Warmup complete CPU 0 instructions: 50000001 cycles: 16392093 (Simulation time: 0 hr 13 min 19 sec) 

Heartbeat CPU 0 instructions: 60000001 cycles: 24721606 heartbeat IPC: 1.20055 cumulative IPC: 1.20055 (Simulation time: 0 hr 15 min 43 sec) 
Heartbeat CPU 0 instructions: 70000000 cycles: 32873387 heartbeat IPC: 1.22673 cumulative IPC: 1.2135 (Simulation time: 0 hr 18 min 23 sec) 
Heartbeat CPU 0 instructions: 80000000 cycles: 41328521 heartbeat IPC: 1.18271 cumulative IPC: 1.20306 (Simulation time: 0 hr 20 min 58 sec) 
Heartbeat CPU 0 instructions: 90000000 cycles: 47079429 heartbeat IPC: 1.73886 cumulative IPC: 1.30347 (Simulation time: 0 hr 22 min 42 sec) 
Heartbeat CPU 0 instructions: 100000002 cycles: 52984334 heartbeat IPC: 1.69351 cumulative IPC: 1.36641 (Simulation time: 0 hr 24 min 16 sec) 
Finished CPU 0 instructions: 50000001 cycles: 36592241 cumulative IPC: 1.36641 (Simulation time: 0 hr 24 min 16 sec) 

ChampSim completed all CPUs

Region of Interest Statistics

CPU 0 cumulative IPC: 1.36641 instructions: 50000001 cycles: 36592241
L1D TOTAL     ACCESS:   20684042  HIT:   20268957  MISS:     415085
L1D LOAD      ACCESS:    7171953  HIT:    6958152  MISS:     213801
L1D RFO       ACCESS:    6542164  HIT:    6523650  MISS:      18514
L1D PREFETCH  ACCESS:    6969925  HIT:    6787155  MISS:     182770
L1D WRITEBACK ACCESS:          0  HIT:          0  MISS:          0
L1D PREFETCH  REQUESTED:    7187870  ISSUED:    7071301  USEFUL:      55108  USELESS:     127657
L1D AVERAGE MISS LATENCY: 59.4469 cycles
L1I TOTAL     ACCESS:   19023682  HIT:   17610967  MISS:    1412715
L1I LOAD      ACCESS:    9179109  HIT:    9118060  MISS:      61049
L1I RFO       ACCESS:          0  HIT:          0  MISS:          0
L1I PREFETCH  ACCESS:    9844573  HIT:    8492907  MISS:    1351666
L1I WRITEBACK ACCESS:          0  HIT:          0  MISS:          0
L1I PREFETCH  REQUESTED:   10527755  ISSUED:   10139390  USEFUL:     580042  USELESS:     771656
L1I AVERAGE MISS LATENCY: 16.3672 cycles
L2C TOTAL     ACCESS:    2600234  HIT:    2427818  MISS:     172416
L2C LOAD      ACCESS:     265508  HIT:     183242  MISS:      82266
L2C RFO       ACCESS:      18266  HIT:      12596  MISS:       5670
L2C PREFETCH  ACCESS:    2237497  HIT:    2153473  MISS:      84024
L2C WRITEBACK ACCESS:      78963  HIT:      78507  MISS:        456
L2C PREFETCH  REQUESTED:    1471220  ISSUED:    1471026  USEFUL:       6931  USELESS:      77075
L2C AVERAGE MISS LATENCY: 118.147 cycles
LLC TOTAL     ACCESS:     451484  HIT:     305918  MISS:     145566
LLC LOAD      ACCESS:      82265  HIT:      32126  MISS:      50139
LLC RFO       ACCESS:       5669  HIT:       2565  MISS:       3104
LLC PREFETCH  ACCESS:     337067  HIT:     245215  MISS:      91852
LLC WRITEBACK ACCESS:      26483  HIT:      26012  MISS:        471
LLC PREFETCH  REQUESTED:          0  ISSUED:          0  USEFUL:      13586  USELESS:      78206
LLC AVERAGE MISS LATENCY: 160.434 cycles
Major fault: 0 Minor fault: 6365
CPU 0 L1D next line prefetcher final stats

DRAM Statistics
 CHANNEL 0
 RQ ROW_BUFFER_HIT:      33686  ROW_BUFFER_MISS:     111406
 DBUS_CONGESTED:      55608
 WQ ROW_BUFFER_HIT:       4480  ROW_BUFFER_MISS:      13013  FULL:          0

 AVG_CONGESTED_CYCLE: 4

CPU 0 Branch Prediction Accuracy: 98.7418% MPKI: 2.47758 Average ROB Occupancy at Mispredict: 79.4695

Branch types
NOT_BRANCH: 40154100 80.3082%
BRANCH_DIRECT_JUMP: 817094 1.63419%
BRANCH_INDIRECT: 303787 0.607574%
BRANCH_CONDITIONAL: 7492103 14.9842%
BRANCH_DIRECT_CALL: 471777 0.943554%
BRANCH_INDIRECT_CALL: 144546 0.289092%
BRANCH_RETURN: 616324 1.23265%
BRANCH_OTHER: 0 0%

