Initialize SIGNATURE TABLE
ST_SET: 1
ST_WAY: 256
ST_TAG_BIT: 16
ST_TAG_MASK: ffff

Initialize PATTERN TABLE
PT_SET: 512
PT_WAY: 4
SIG_DELTA_BIT: 7
C_SIG_BIT: 4
C_DELTA_BIT: 4

Initialize PREFETCH FILTER
FILTER_SET: 1024

*** ChampSim Multicore Out-of-Order Simulator ***

Warmup Instructions: 50000000
Simulation Instructions: 50000000
Number of CPUs: 1
LLC sets: 2048
LLC ways: 16
Off-chip DRAM Size: 4096 MB Channels: 1 Width: 64-bit Data Rate: 3200 MT/s

CPU 0 runs /home/ChampSim-master//dpc3_traces/spec_x264_001.champsimtrace.xz
CPU 0 EPI prefetcher
CPU 0 L1D next line prefetcher
Heartbeat CPU 0 instructions: 10000002 cycles: 3059841 heartbeat IPC: 3.26814 cumulative IPC: 3.26814 (Simulation time: 0 hr 2 min 5 sec) 
Heartbeat CPU 0 instructions: 20000002 cycles: 6110037 heartbeat IPC: 3.27848 cumulative IPC: 3.2733 (Simulation time: 0 hr 4 min 11 sec) 
Heartbeat CPU 0 instructions: 30000002 cycles: 9145714 heartbeat IPC: 3.29416 cumulative IPC: 3.28023 (Simulation time: 0 hr 6 min 12 sec) 
Heartbeat CPU 0 instructions: 40000000 cycles: 12190151 heartbeat IPC: 3.28468 cumulative IPC: 3.28134 (Simulation time: 0 hr 8 min 21 sec) 
Heartbeat CPU 0 instructions: 50000000 cycles: 15232995 heartbeat IPC: 3.2864 cumulative IPC: 3.28235 (Simulation time: 0 hr 10 min 21 sec) 

Warmup complete CPU 0 instructions: 50000004 cycles: 15232996 (Simulation time: 0 hr 10 min 21 sec) 

Heartbeat CPU 0 instructions: 60000002 cycles: 21200802 heartbeat IPC: 1.67566 cumulative IPC: 1.67566 (Simulation time: 0 hr 11 min 50 sec) 
Heartbeat CPU 0 instructions: 70000000 cycles: 27140861 heartbeat IPC: 1.68348 cumulative IPC: 1.67956 (Simulation time: 0 hr 13 min 15 sec) 
Heartbeat CPU 0 instructions: 80000003 cycles: 33241085 heartbeat IPC: 1.63928 cumulative IPC: 1.66592 (Simulation time: 0 hr 14 min 38 sec) 
Heartbeat CPU 0 instructions: 90000002 cycles: 39314754 heartbeat IPC: 1.64645 cumulative IPC: 1.66101 (Simulation time: 0 hr 16 min 0 sec) 
Heartbeat CPU 0 instructions: 100000002 cycles: 45245002 heartbeat IPC: 1.68627 cumulative IPC: 1.666 (Simulation time: 0 hr 17 min 28 sec) 
Finished CPU 0 instructions: 50000002 cycles: 30012007 cumulative IPC: 1.666 (Simulation time: 0 hr 17 min 28 sec) 

ChampSim completed all CPUs

Region of Interest Statistics

CPU 0 cumulative IPC: 1.666 instructions: 50000002 cycles: 30012007
L1D TOTAL     ACCESS:   12970967  HIT:   12809914  MISS:     161053
L1D LOAD      ACCESS:    5098392  HIT:    5043232  MISS:      55160
L1D RFO       ACCESS:    2880244  HIT:    2845992  MISS:      34252
L1D PREFETCH  ACCESS:    4992331  HIT:    4920690  MISS:      71641
L1D WRITEBACK ACCESS:          0  HIT:          0  MISS:          0
L1D PREFETCH  REQUESTED:    5114824  ISSUED:    5047354  USEFUL:      25761  USELESS:      45689
L1D AVERAGE MISS LATENCY: 40.297 cycles
L1I TOTAL     ACCESS:   19529658  HIT:   19210025  MISS:     319633
L1I LOAD      ACCESS:    8028048  HIT:    8004901  MISS:      23147
L1I RFO       ACCESS:          0  HIT:          0  MISS:          0
L1I PREFETCH  ACCESS:   11501610  HIT:   11205124  MISS:     296486
L1I WRITEBACK ACCESS:          0  HIT:          0  MISS:          0
L1I PREFETCH  REQUESTED:   13994892  ISSUED:   13994892  USEFUL:     243989  USELESS:      52473
L1I AVERAGE MISS LATENCY: 15.0317 cycles
L2C TOTAL     ACCESS:     752533  HIT:     713392  MISS:      39141
L2C LOAD      ACCESS:      76307  HIT:      70933  MISS:       5374
L2C RFO       ACCESS:      34002  HIT:      21950  MISS:      12052
L2C PREFETCH  ACCESS:     599173  HIT:     577536  MISS:      21637
L2C WRITEBACK ACCESS:      43051  HIT:      42973  MISS:         78
L2C PREFETCH  REQUESTED:     599782  ISSUED:     599124  USEFUL:       8942  USELESS:      12898
L2C AVERAGE MISS LATENCY: 105.406 cycles
LLC TOTAL     ACCESS:     120678  HIT:      91609  MISS:      29069
LLC LOAD      ACCESS:       5356  HIT:       3200  MISS:       2156
LLC RFO       ACCESS:      12052  HIT:        447  MISS:      11605
LLC PREFETCH  ACCESS:      89640  HIT:      74391  MISS:      15249
LLC WRITEBACK ACCESS:      13630  HIT:      13571  MISS:         59
LLC PREFETCH  REQUESTED:          0  ISSUED:          0  USEFUL:       1729  USELESS:      13851
LLC AVERAGE MISS LATENCY: 167.386 cycles
Major fault: 0 Minor fault: 1285
CPU 0 L1I EPI prefetcher final stats
CPU 0 L1D next line prefetcher final stats

DRAM Statistics
 CHANNEL 0
 RQ ROW_BUFFER_HIT:       8680  ROW_BUFFER_MISS:      20330
 DBUS_CONGESTED:      12422
 WQ ROW_BUFFER_HIT:       2880  ROW_BUFFER_MISS:       9877  FULL:          0

 AVG_CONGESTED_CYCLE: 6

CPU 0 Branch Prediction Accuracy: 97.1633% MPKI: 1.73704 Average ROB Occupancy at Mispredict: 43.2061

Branch types
NOT_BRANCH: 46937921 93.8758%
BRANCH_DIRECT_JUMP: 170816 0.341632%
BRANCH_INDIRECT: 0 0%
BRANCH_CONDITIONAL: 2532774 5.06555%
BRANCH_DIRECT_CALL: 114227 0.228454%
BRANCH_INDIRECT_CALL: 64863 0.129726%
BRANCH_RETURN: 179089 0.358178%
BRANCH_OTHER: 0 0%

