Initialize SIGNATURE TABLE
ST_SET: 1
ST_WAY: 256
ST_TAG_BIT: 16
ST_TAG_MASK: ffff

Initialize PATTERN TABLE
PT_SET: 512
PT_WAY: 4
SIG_DELTA_BIT: 7
C_SIG_BIT: 4
C_DELTA_BIT: 4

Initialize PREFETCH FILTER
FILTER_SET: 1024

*** ChampSim Multicore Out-of-Order Simulator ***

Warmup Instructions: 50000000
Simulation Instructions: 50000000
Number of CPUs: 1
LLC sets: 2048
LLC ways: 16
Off-chip DRAM Size: 4096 MB Channels: 1 Width: 64-bit Data Rate: 3200 MT/s

CPU 0 runs /home/ChampSim-master//dpc3_traces/spec_gobmk_001.champsimtrace.xz
L1I D-JOLT instruction prefetcher has been constructed!
CPU 0 L1D next line prefetcher
Heartbeat CPU 0 instructions: 10000003 cycles: 3506790 heartbeat IPC: 2.85161 cumulative IPC: 2.85161 (Simulation time: 0 hr 2 min 35 sec) 
Heartbeat CPU 0 instructions: 20000002 cycles: 6986982 heartbeat IPC: 2.8734 cumulative IPC: 2.86247 (Simulation time: 0 hr 4 min 59 sec) 
Heartbeat CPU 0 instructions: 30000002 cycles: 10505737 heartbeat IPC: 2.84191 cumulative IPC: 2.85558 (Simulation time: 0 hr 7 min 15 sec) 
Heartbeat CPU 0 instructions: 40000001 cycles: 14024704 heartbeat IPC: 2.84174 cumulative IPC: 2.85211 (Simulation time: 0 hr 9 min 22 sec) 
Heartbeat CPU 0 instructions: 50000001 cycles: 17564733 heartbeat IPC: 2.82484 cumulative IPC: 2.84661 (Simulation time: 0 hr 11 min 32 sec) 

Warmup complete CPU 0 instructions: 50000001 cycles: 17564733 (Simulation time: 0 hr 11 min 32 sec) 

Heartbeat CPU 0 instructions: 60000000 cycles: 26309565 heartbeat IPC: 1.14353 cumulative IPC: 1.14353 (Simulation time: 0 hr 13 min 24 sec) 
Heartbeat CPU 0 instructions: 70000002 cycles: 34689658 heartbeat IPC: 1.1933 cumulative IPC: 1.16789 (Simulation time: 0 hr 15 min 19 sec) 
Heartbeat CPU 0 instructions: 80000003 cycles: 43502044 heartbeat IPC: 1.13477 cumulative IPC: 1.15664 (Simulation time: 0 hr 16 min 58 sec) 
Heartbeat CPU 0 instructions: 90000001 cycles: 51984245 heartbeat IPC: 1.17894 cumulative IPC: 1.16213 (Simulation time: 0 hr 18 min 34 sec) 
Heartbeat CPU 0 instructions: 100000003 cycles: 60780084 heartbeat IPC: 1.1369 cumulative IPC: 1.157 (Simulation time: 0 hr 20 min 14 sec) 
Finished CPU 0 instructions: 50000002 cycles: 43215351 cumulative IPC: 1.157 (Simulation time: 0 hr 20 min 14 sec) 

ChampSim completed all CPUs

Region of Interest Statistics

CPU 0 cumulative IPC: 1.157 instructions: 50000002 cycles: 43215351
L1D TOTAL     ACCESS:   17982721  HIT:   17603240  MISS:     379481
L1D LOAD      ACCESS:    7210455  HIT:    7075432  MISS:     135023
L1D RFO       ACCESS:    3700638  HIT:    3596073  MISS:     104565
L1D PREFETCH  ACCESS:    7071628  HIT:    6931735  MISS:     139893
L1D WRITEBACK ACCESS:          0  HIT:          0  MISS:          0
L1D PREFETCH  REQUESTED:    7215822  ISSUED:    7133112  USEFUL:      45223  USELESS:      94676
L1D AVERAGE MISS LATENCY: 33.7935 cycles
L1I TOTAL     ACCESS:   15113181  HIT:   13317689  MISS:    1795492
L1I LOAD      ACCESS:    8977473  HIT:    8941604  MISS:      35869
L1I RFO       ACCESS:          0  HIT:          0  MISS:          0
L1I PREFETCH  ACCESS:    6135708  HIT:    4376085  MISS:    1759623
L1I WRITEBACK ACCESS:          0  HIT:          0  MISS:          0
L1I PREFETCH  REQUESTED:    6523348  ISSUED:    6211302  USEFUL:     871540  USELESS:     888036
L1I AVERAGE MISS LATENCY: 15.14 cycles
L2C TOTAL     ACCESS:    3238690  HIT:    3110690  MISS:     128000
L2C LOAD      ACCESS:     142593  HIT:     107216  MISS:      35377
L2C RFO       ACCESS:     104212  HIT:      69729  MISS:      34483
L2C PREFETCH  ACCESS:    2852600  HIT:    2794543  MISS:      58057
L2C WRITEBACK ACCESS:     139285  HIT:     139202  MISS:         83
L2C PREFETCH  REQUESTED:    1690579  ISSUED:    1690492  USEFUL:       4874  USELESS:      53491
L2C AVERAGE MISS LATENCY: 63.9402 cycles
LLC TOTAL     ACCESS:     285926  HIT:     251377  MISS:      34549
LLC LOAD      ACCESS:      35375  HIT:      27223  MISS:       8152
LLC RFO       ACCESS:      34483  HIT:      27999  MISS:       6484
LLC PREFETCH  ACCESS:     170629  HIT:     150962  MISS:      19667
LLC WRITEBACK ACCESS:      45439  HIT:      45193  MISS:        246
LLC PREFETCH  REQUESTED:          0  ISSUED:          0  USEFUL:       1289  USELESS:      17337
LLC AVERAGE MISS LATENCY: 178.892 cycles
Major fault: 0 Minor fault: 4161
CPU 0 L1D next line prefetcher final stats

DRAM Statistics
 CHANNEL 0
 RQ ROW_BUFFER_HIT:       4517  ROW_BUFFER_MISS:      29785
 DBUS_CONGESTED:      18509
 WQ ROW_BUFFER_HIT:       1495  ROW_BUFFER_MISS:      14236  FULL:          0

 AVG_CONGESTED_CYCLE: 4

CPU 0 Branch Prediction Accuracy: 94.7729% MPKI: 9.72684 Average ROB Occupancy at Mispredict: 54.3268

Branch types
NOT_BRANCH: 40695383 81.3908%
BRANCH_DIRECT_JUMP: 422107 0.844214%
BRANCH_INDIRECT: 65 0.00013%
BRANCH_CONDITIONAL: 8105005 16.21%
BRANCH_DIRECT_CALL: 374913 0.749826%
BRANCH_INDIRECT_CALL: 13657 0.027314%
BRANCH_RETURN: 388556 0.777112%
BRANCH_OTHER: 0 0%

