Initialize SIGNATURE TABLE
ST_SET: 1
ST_WAY: 256
ST_TAG_BIT: 16
ST_TAG_MASK: ffff

Initialize PATTERN TABLE
PT_SET: 512
PT_WAY: 4
SIG_DELTA_BIT: 7
C_SIG_BIT: 4
C_DELTA_BIT: 4

Initialize PREFETCH FILTER
FILTER_SET: 1024

*** ChampSim Multicore Out-of-Order Simulator ***

Warmup Instructions: 50000000
Simulation Instructions: 50000000
Number of CPUs: 1
LLC sets: 2048
LLC ways: 16
Off-chip DRAM Size: 4096 MB Channels: 1 Width: 64-bit Data Rate: 3200 MT/s

CPU 0 runs /home/ChampSim-master//dpc3_traces/spec_perlbench_001.champsimtrace.xz
L1I D-JOLT instruction prefetcher has been constructed!
CPU 0 L1D next line prefetcher
Heartbeat CPU 0 instructions: 10000000 cycles: 3276261 heartbeat IPC: 3.05226 cumulative IPC: 3.05226 (Simulation time: 0 hr 2 min 35 sec) 
Heartbeat CPU 0 instructions: 20000000 cycles: 6542243 heartbeat IPC: 3.06187 cumulative IPC: 3.05706 (Simulation time: 0 hr 5 min 22 sec) 
Heartbeat CPU 0 instructions: 30000002 cycles: 9861153 heartbeat IPC: 3.01304 cumulative IPC: 3.04224 (Simulation time: 0 hr 8 min 21 sec) 
Heartbeat CPU 0 instructions: 40000002 cycles: 13117344 heartbeat IPC: 3.07107 cumulative IPC: 3.0494 (Simulation time: 0 hr 10 min 53 sec) 
Heartbeat CPU 0 instructions: 50000001 cycles: 16391661 heartbeat IPC: 3.05407 cumulative IPC: 3.05033 (Simulation time: 0 hr 13 min 21 sec) 

Warmup complete CPU 0 instructions: 50000001 cycles: 16391661 (Simulation time: 0 hr 13 min 21 sec) 

Heartbeat CPU 0 instructions: 60000001 cycles: 24738756 heartbeat IPC: 1.19802 cumulative IPC: 1.19802 (Simulation time: 0 hr 16 min 8 sec) 
Heartbeat CPU 0 instructions: 70000000 cycles: 32955462 heartbeat IPC: 1.21703 cumulative IPC: 1.20745 (Simulation time: 0 hr 18 min 38 sec) 
Heartbeat CPU 0 instructions: 80000000 cycles: 41438296 heartbeat IPC: 1.17885 cumulative IPC: 1.19777 (Simulation time: 0 hr 21 min 3 sec) 
Heartbeat CPU 0 instructions: 90000000 cycles: 47204043 heartbeat IPC: 1.73438 cumulative IPC: 1.29818 (Simulation time: 0 hr 22 min 54 sec) 
Heartbeat CPU 0 instructions: 100000002 cycles: 53118755 heartbeat IPC: 1.6907 cumulative IPC: 1.36139 (Simulation time: 0 hr 24 min 37 sec) 
Finished CPU 0 instructions: 50000001 cycles: 36727094 cumulative IPC: 1.36139 (Simulation time: 0 hr 24 min 37 sec) 

ChampSim completed all CPUs

Region of Interest Statistics

CPU 0 cumulative IPC: 1.36139 instructions: 50000001 cycles: 36727094
L1D TOTAL     ACCESS:   20687845  HIT:   20272764  MISS:     415081
L1D LOAD      ACCESS:    7173710  HIT:    6959985  MISS:     213725
L1D RFO       ACCESS:    6542342  HIT:    6523827  MISS:      18515
L1D PREFETCH  ACCESS:    6971793  HIT:    6788952  MISS:     182841
L1D WRITEBACK ACCESS:          0  HIT:          0  MISS:          0
L1D PREFETCH  REQUESTED:    7189619  ISSUED:    7073052  USEFUL:      55176  USELESS:     127660
L1D AVERAGE MISS LATENCY: 59.7125 cycles
L1I TOTAL     ACCESS:   15542790  HIT:   14165350  MISS:    1377440
L1I LOAD      ACCESS:    9181019  HIT:    9114498  MISS:      66521
L1I RFO       ACCESS:          0  HIT:          0  MISS:          0
L1I PREFETCH  ACCESS:    6361771  HIT:    5050852  MISS:    1310919
L1I WRITEBACK ACCESS:          0  HIT:          0  MISS:          0
L1I PREFETCH  REQUESTED:    6768667  ISSUED:    6450272  USEFUL:     557705  USELESS:     753245
L1I AVERAGE MISS LATENCY: 16.3035 cycles
L2C TOTAL     ACCESS:    2515704  HIT:    2343894  MISS:     171810
L2C LOAD      ACCESS:     271059  HIT:     188101  MISS:      82958
L2C RFO       ACCESS:      18268  HIT:      12624  MISS:       5644
L2C PREFETCH  ACCESS:    2147417  HIT:    2064689  MISS:      82728
L2C WRITEBACK ACCESS:      78960  HIT:      78480  MISS:        480
L2C PREFETCH  REQUESTED:    1308161  ISSUED:    1308082  USEFUL:       7290  USELESS:      75467
L2C AVERAGE MISS LATENCY: 118.971 cycles
LLC TOTAL     ACCESS:     425452  HIT:     282637  MISS:     142815
LLC LOAD      ACCESS:      82957  HIT:      32125  MISS:      50832
LLC RFO       ACCESS:       5644  HIT:       2519  MISS:       3125
LLC PREFETCH  ACCESS:     310464  HIT:     222053  MISS:      88411
LLC WRITEBACK ACCESS:      26387  HIT:      25940  MISS:        447
LLC PREFETCH  REQUESTED:          0  ISSUED:          0  USEFUL:      13168  USELESS:      75453
LLC AVERAGE MISS LATENCY: 159.963 cycles
Major fault: 0 Minor fault: 6365
CPU 0 L1D next line prefetcher final stats

DRAM Statistics
 CHANNEL 0
 RQ ROW_BUFFER_HIT:      31995  ROW_BUFFER_MISS:     110373
 DBUS_CONGESTED:      55036
 WQ ROW_BUFFER_HIT:       4473  ROW_BUFFER_MISS:      12863  FULL:          0

 AVG_CONGESTED_CYCLE: 4

CPU 0 Branch Prediction Accuracy: 98.7418% MPKI: 2.47758 Average ROB Occupancy at Mispredict: 78.8587

Branch types
NOT_BRANCH: 40154100 80.3082%
BRANCH_DIRECT_JUMP: 817094 1.63419%
BRANCH_INDIRECT: 303787 0.607574%
BRANCH_CONDITIONAL: 7492103 14.9842%
BRANCH_DIRECT_CALL: 471777 0.943554%
BRANCH_INDIRECT_CALL: 144546 0.289092%
BRANCH_RETURN: 616324 1.23265%
BRANCH_OTHER: 0 0%

