Initialize SIGNATURE TABLE
ST_SET: 1
ST_WAY: 256
ST_TAG_BIT: 16
ST_TAG_MASK: ffff

Initialize PATTERN TABLE
PT_SET: 512
PT_WAY: 4
SIG_DELTA_BIT: 7
C_SIG_BIT: 4
C_DELTA_BIT: 4

Initialize PREFETCH FILTER
FILTER_SET: 1024

*** ChampSim Multicore Out-of-Order Simulator ***

Warmup Instructions: 50000000
Simulation Instructions: 50000000
Number of CPUs: 1
LLC sets: 2048
LLC ways: 16
Off-chip DRAM Size: 4096 MB Channels: 1 Width: 64-bit Data Rate: 3200 MT/s

CPU 0 runs /home/ChampSim-master//dpc3_traces/spec_gcc_002.champsimtrace.xz
L1I D-JOLT instruction prefetcher has been constructed!
CPU 0 L1D next line prefetcher
Heartbeat CPU 0 instructions: 10000002 cycles: 3535696 heartbeat IPC: 2.8283 cumulative IPC: 2.8283 (Simulation time: 0 hr 2 min 40 sec) 
Heartbeat CPU 0 instructions: 20000000 cycles: 7108771 heartbeat IPC: 2.79871 cumulative IPC: 2.81343 (Simulation time: 0 hr 5 min 20 sec) 
Heartbeat CPU 0 instructions: 30000000 cycles: 10734773 heartbeat IPC: 2.75786 cumulative IPC: 2.79466 (Simulation time: 0 hr 8 min 7 sec) 
Heartbeat CPU 0 instructions: 40000000 cycles: 14286323 heartbeat IPC: 2.81567 cumulative IPC: 2.79988 (Simulation time: 0 hr 10 min 51 sec) 
Heartbeat CPU 0 instructions: 50000002 cycles: 17769927 heartbeat IPC: 2.87059 cumulative IPC: 2.81374 (Simulation time: 0 hr 13 min 25 sec) 

Warmup complete CPU 0 instructions: 50000002 cycles: 17769927 (Simulation time: 0 hr 13 min 25 sec) 

Heartbeat CPU 0 instructions: 60000001 cycles: 57703170 heartbeat IPC: 0.250418 cumulative IPC: 0.250418 (Simulation time: 0 hr 18 min 22 sec) 
Heartbeat CPU 0 instructions: 70000001 cycles: 89952201 heartbeat IPC: 0.310087 cumulative IPC: 0.277076 (Simulation time: 0 hr 22 min 43 sec) 
Heartbeat CPU 0 instructions: 80000002 cycles: 139370858 heartbeat IPC: 0.202353 cumulative IPC: 0.246709 (Simulation time: 0 hr 27 min 47 sec) 
Heartbeat CPU 0 instructions: 90000001 cycles: 184261082 heartbeat IPC: 0.222766 cumulative IPC: 0.240253 (Simulation time: 0 hr 29 min 46 sec) 
Heartbeat CPU 0 instructions: 100000000 cycles: 215911153 heartbeat IPC: 0.315955 cumulative IPC: 0.252345 (Simulation time: 0 hr 30 min 22 sec) 
Finished CPU 0 instructions: 50000002 cycles: 198141234 cumulative IPC: 0.252345 (Simulation time: 0 hr 30 min 22 sec) 

ChampSim completed all CPUs

Region of Interest Statistics

CPU 0 cumulative IPC: 0.252345 instructions: 50000002 cycles: 198141234
L1D TOTAL     ACCESS:   18167031  HIT:   12933592  MISS:    5233439
L1D LOAD      ACCESS:    6330023  HIT:    5270677  MISS:    1059346
L1D RFO       ACCESS:    7024136  HIT:    3423478  MISS:    3600658
L1D PREFETCH  ACCESS:    4812872  HIT:    4239437  MISS:     573435
L1D WRITEBACK ACCESS:          0  HIT:          0  MISS:          0
L1D PREFETCH  REQUESTED:    6350314  ISSUED:    6279844  USEFUL:     413840  USELESS:     159811
L1D AVERAGE MISS LATENCY: 335.526 cycles
L1I TOTAL     ACCESS:   16718255  HIT:   15493543  MISS:    1224712
L1I LOAD      ACCESS:   12115872  HIT:   12063331  MISS:      52541
L1I RFO       ACCESS:          0  HIT:          0  MISS:          0
L1I PREFETCH  ACCESS:    4602383  HIT:    3430212  MISS:    1172171
L1I WRITEBACK ACCESS:          0  HIT:          0  MISS:          0
L1I PREFETCH  REQUESTED:    5228030  ISSUED:    4995163  USEFUL:     683648  USELESS:     488570
L1I AVERAGE MISS LATENCY: 63.2726 cycles
L2C TOTAL     ACCESS:   10676566  HIT:    5333580  MISS:    5342986
L2C LOAD      ACCESS:     281007  HIT:     121011  MISS:     159996
L2C RFO       ACCESS:    3599065  HIT:      12984  MISS:    3586081
L2C PREFETCH  ACCESS:    3071002  HIT:    1474216  MISS:    1596786
L2C WRITEBACK ACCESS:    3725492  HIT:    3725369  MISS:        123
L2C PREFETCH  REQUESTED:    3116912  ISSUED:    3116870  USEFUL:      27286  USELESS:    1569709
L2C AVERAGE MISS LATENCY: 346.779 cycles
LLC TOTAL     ACCESS:   10016437  HIT:    6106907  MISS:    3909530
LLC LOAD      ACCESS:     159832  HIT:      94333  MISS:      65499
LLC RFO       ACCESS:    3586081  HIT:     575696  MISS:    3010385
LLC PREFETCH  ACCESS:    2605073  HIT:    1771427  MISS:     833646
LLC WRITEBACK ACCESS:    3665451  HIT:    3665451  MISS:          0
LLC PREFETCH  REQUESTED:          0  ISSUED:          0  USEFUL:     144910  USELESS:     684278
LLC AVERAGE MISS LATENCY: 457.756 cycles
Major fault: 0 Minor fault: 4154
CPU 0 L1D next line prefetcher final stats

DRAM Statistics
 CHANNEL 0
 RQ ROW_BUFFER_HIT:    1039496  ROW_BUFFER_MISS:    2867933
 DBUS_CONGESTED:    5579825
 WQ ROW_BUFFER_HIT:     945708  ROW_BUFFER_MISS:    2242230  FULL:          0

 AVG_CONGESTED_CYCLE: 6

CPU 0 Branch Prediction Accuracy: 99.5987% MPKI: 0.82446 Average ROB Occupancy at Mispredict: 135.226

Branch types
NOT_BRANCH: 39726803 79.4536%
BRANCH_DIRECT_JUMP: 391438 0.782876%
BRANCH_INDIRECT: 62076 0.124152%
BRANCH_CONDITIONAL: 8421539 16.8431%
BRANCH_DIRECT_CALL: 672962 1.34592%
BRANCH_INDIRECT_CALL: 26115 0.05223%
BRANCH_RETURN: 699082 1.39816%
BRANCH_OTHER: 0 0%

