Initialize SIGNATURE TABLE
ST_SET: 1
ST_WAY: 256
ST_TAG_BIT: 16
ST_TAG_MASK: ffff

Initialize PATTERN TABLE
PT_SET: 512
PT_WAY: 4
SIG_DELTA_BIT: 7
C_SIG_BIT: 4
C_DELTA_BIT: 4

Initialize PREFETCH FILTER
FILTER_SET: 1024

*** ChampSim Multicore Out-of-Order Simulator ***

Warmup Instructions: 50000000
Simulation Instructions: 50000000
Number of CPUs: 1
LLC sets: 2048
LLC ways: 16
Off-chip DRAM Size: 4096 MB Channels: 1 Width: 64-bit Data Rate: 3200 MT/s

CPU 0 runs /home/ChampSim-master//dpc3_traces/spec_gcc_002.champsimtrace.xz
L1I D-JOLT instruction prefetcher has been constructed!
CPU 0 L1D next line prefetcher
Heartbeat CPU 0 instructions: 10000002 cycles: 3541755 heartbeat IPC: 2.82346 cumulative IPC: 2.82346 (Simulation time: 0 hr 3 min 1 sec) 
Heartbeat CPU 0 instructions: 20000000 cycles: 7109480 heartbeat IPC: 2.80291 cumulative IPC: 2.81315 (Simulation time: 0 hr 5 min 55 sec) 
Heartbeat CPU 0 instructions: 30000000 cycles: 10743545 heartbeat IPC: 2.75174 cumulative IPC: 2.79237 (Simulation time: 0 hr 9 min 13 sec) 
Heartbeat CPU 0 instructions: 40000000 cycles: 14298474 heartbeat IPC: 2.813 cumulative IPC: 2.7975 (Simulation time: 0 hr 11 min 53 sec) 
Heartbeat CPU 0 instructions: 50000002 cycles: 17781255 heartbeat IPC: 2.87127 cumulative IPC: 2.81195 (Simulation time: 0 hr 14 min 37 sec) 

Warmup complete CPU 0 instructions: 50000002 cycles: 17781255 (Simulation time: 0 hr 14 min 37 sec) 

Heartbeat CPU 0 instructions: 60000001 cycles: 57765241 heartbeat IPC: 0.2501 cumulative IPC: 0.2501 (Simulation time: 0 hr 20 min 17 sec) 
Heartbeat CPU 0 instructions: 70000001 cycles: 89845064 heartbeat IPC: 0.311722 cumulative IPC: 0.277532 (Simulation time: 0 hr 24 min 49 sec) 
Heartbeat CPU 0 instructions: 80000002 cycles: 139174962 heartbeat IPC: 0.202717 cumulative IPC: 0.24713 (Simulation time: 0 hr 27 min 57 sec) 
Heartbeat CPU 0 instructions: 90000001 cycles: 183929594 heartbeat IPC: 0.223441 cumulative IPC: 0.240749 (Simulation time: 0 hr 28 min 46 sec) 
Heartbeat CPU 0 instructions: 100000000 cycles: 215640596 heartbeat IPC: 0.315348 cumulative IPC: 0.252705 (Simulation time: 0 hr 29 min 17 sec) 
Finished CPU 0 instructions: 50000002 cycles: 197859349 cumulative IPC: 0.252705 (Simulation time: 0 hr 29 min 17 sec) 

ChampSim completed all CPUs

Region of Interest Statistics

CPU 0 cumulative IPC: 0.252705 instructions: 50000002 cycles: 197859349
L1D TOTAL     ACCESS:   18170443  HIT:   12936965  MISS:    5233478
L1D LOAD      ACCESS:    6330150  HIT:    5272395  MISS:    1057755
L1D RFO       ACCESS:    7025318  HIT:    3424698  MISS:    3600620
L1D PREFETCH  ACCESS:    4814975  HIT:    4239872  MISS:     575103
L1D WRITEBACK ACCESS:          0  HIT:          0  MISS:          0
L1D PREFETCH  REQUESTED:    6350288  ISSUED:    6279559  USEFUL:     415458  USELESS:     159861
L1D AVERAGE MISS LATENCY: 335.055 cycles
L1I TOTAL     ACCESS:   16751333  HIT:   15533756  MISS:    1217577
L1I LOAD      ACCESS:   12111645  HIT:   12059788  MISS:      51857
L1I RFO       ACCESS:          0  HIT:          0  MISS:          0
L1I PREFETCH  ACCESS:    4639688  HIT:    3473968  MISS:    1165720
L1I WRITEBACK ACCESS:          0  HIT:          0  MISS:          0
L1I PREFETCH  REQUESTED:    5246772  ISSUED:    5021443  USEFUL:     682225  USELESS:     483556
L1I AVERAGE MISS LATENCY: 64.746 cycles
L2C TOTAL     ACCESS:   10657312  HIT:    5313752  MISS:    5343560
L2C LOAD      ACCESS:     280453  HIT:     120048  MISS:     160405
L2C RFO       ACCESS:    3599035  HIT:      12984  MISS:    3586051
L2C PREFETCH  ACCESS:    3052332  HIT:    1455378  MISS:    1596954
L2C WRITEBACK ACCESS:    3725492  HIT:    3725342  MISS:        150
L2C PREFETCH  REQUESTED:    3052435  ISSUED:    3052359  USEFUL:      26429  USELESS:    1570754
L2C AVERAGE MISS LATENCY: 346.386 cycles
LLC TOTAL     ACCESS:    9998138  HIT:    6093774  MISS:    3904364
LLC LOAD      ACCESS:     160243  HIT:      94517  MISS:      65726
LLC RFO       ACCESS:    3586050  HIT:     581369  MISS:    3004681
LLC PREFETCH  ACCESS:    2586551  HIT:    1752594  MISS:     833957
LLC WRITEBACK ACCESS:    3665294  HIT:    3665294  MISS:          0
LLC PREFETCH  REQUESTED:          0  ISSUED:          0  USEFUL:     145185  USELESS:     684471
LLC AVERAGE MISS LATENCY: 457.747 cycles
Major fault: 0 Minor fault: 4154
CPU 0 L1D next line prefetcher final stats

DRAM Statistics
 CHANNEL 0
 RQ ROW_BUFFER_HIT:    1036715  ROW_BUFFER_MISS:    2865574
 DBUS_CONGESTED:    5569039
 WQ ROW_BUFFER_HIT:     940085  ROW_BUFFER_MISS:    2242288  FULL:          0

 AVG_CONGESTED_CYCLE: 6

CPU 0 Branch Prediction Accuracy: 99.5987% MPKI: 0.82446 Average ROB Occupancy at Mispredict: 135.614

Branch types
NOT_BRANCH: 39726803 79.4536%
BRANCH_DIRECT_JUMP: 391438 0.782876%
BRANCH_INDIRECT: 62076 0.124152%
BRANCH_CONDITIONAL: 8421539 16.8431%
BRANCH_DIRECT_CALL: 672962 1.34592%
BRANCH_INDIRECT_CALL: 26115 0.05223%
BRANCH_RETURN: 699082 1.39816%
BRANCH_OTHER: 0 0%

