Initialize SIGNATURE TABLE
ST_SET: 1
ST_WAY: 256
ST_TAG_BIT: 16
ST_TAG_MASK: ffff

Initialize PATTERN TABLE
PT_SET: 512
PT_WAY: 4
SIG_DELTA_BIT: 7
C_SIG_BIT: 4
C_DELTA_BIT: 4

Initialize PREFETCH FILTER
FILTER_SET: 1024

*** ChampSim Multicore Out-of-Order Simulator ***

Warmup Instructions: 50000000
Simulation Instructions: 50000000
Number of CPUs: 1
LLC sets: 2048
LLC ways: 16
Off-chip DRAM Size: 4096 MB Channels: 1 Width: 64-bit Data Rate: 3200 MT/s

CPU 0 runs /home/ChampSim-master//dpc3_traces/spec_gobmk_001.champsimtrace.xz
L1I D-JOLT instruction prefetcher has been constructed!
CPU 0 L1D next line prefetcher
Heartbeat CPU 0 instructions: 10000003 cycles: 3506722 heartbeat IPC: 2.85167 cumulative IPC: 2.85167 (Simulation time: 0 hr 2 min 32 sec) 
Heartbeat CPU 0 instructions: 20000002 cycles: 6986912 heartbeat IPC: 2.87341 cumulative IPC: 2.8625 (Simulation time: 0 hr 5 min 2 sec) 
Heartbeat CPU 0 instructions: 30000002 cycles: 10505570 heartbeat IPC: 2.84199 cumulative IPC: 2.85563 (Simulation time: 0 hr 7 min 29 sec) 
Heartbeat CPU 0 instructions: 40000001 cycles: 14024510 heartbeat IPC: 2.84176 cumulative IPC: 2.85215 (Simulation time: 0 hr 9 min 51 sec) 
Heartbeat CPU 0 instructions: 50000001 cycles: 17564524 heartbeat IPC: 2.82485 cumulative IPC: 2.84665 (Simulation time: 0 hr 12 min 5 sec) 

Warmup complete CPU 0 instructions: 50000001 cycles: 17564524 (Simulation time: 0 hr 12 min 5 sec) 

Heartbeat CPU 0 instructions: 60000000 cycles: 26320166 heartbeat IPC: 1.14212 cumulative IPC: 1.14212 (Simulation time: 0 hr 13 min 56 sec) 
Heartbeat CPU 0 instructions: 70000002 cycles: 34720601 heartbeat IPC: 1.19041 cumulative IPC: 1.16577 (Simulation time: 0 hr 15 min 42 sec) 
Heartbeat CPU 0 instructions: 80000003 cycles: 43546000 heartbeat IPC: 1.13309 cumulative IPC: 1.15467 (Simulation time: 0 hr 17 min 23 sec) 
Heartbeat CPU 0 instructions: 90000001 cycles: 52032885 heartbeat IPC: 1.17829 cumulative IPC: 1.16048 (Simulation time: 0 hr 19 min 0 sec) 
Heartbeat CPU 0 instructions: 100000003 cycles: 60843948 heartbeat IPC: 1.13494 cumulative IPC: 1.15528 (Simulation time: 0 hr 20 min 41 sec) 
Finished CPU 0 instructions: 50000002 cycles: 43279424 cumulative IPC: 1.15528 (Simulation time: 0 hr 20 min 41 sec) 

ChampSim completed all CPUs

Region of Interest Statistics

CPU 0 cumulative IPC: 1.15528 instructions: 50000002 cycles: 43279424
L1D TOTAL     ACCESS:   17976047  HIT:   17596541  MISS:     379506
L1D LOAD      ACCESS:    7207209  HIT:    7071831  MISS:     135378
L1D RFO       ACCESS:    3700632  HIT:    3596078  MISS:     104554
L1D PREFETCH  ACCESS:    7068206  HIT:    6928632  MISS:     139574
L1D WRITEBACK ACCESS:          0  HIT:          0  MISS:          0
L1D PREFETCH  REQUESTED:    7212555  ISSUED:    7129840  USEFUL:      44905  USELESS:      94675
L1D AVERAGE MISS LATENCY: 33.7976 cycles
L1I TOTAL     ACCESS:   14066972  HIT:   12555456  MISS:    1511516
L1I LOAD      ACCESS:    8968126  HIT:    8916953  MISS:      51173
L1I RFO       ACCESS:          0  HIT:          0  MISS:          0
L1I PREFETCH  ACCESS:    5098846  HIT:    3638503  MISS:    1460343
L1I WRITEBACK ACCESS:          0  HIT:          0  MISS:          0
L1I PREFETCH  REQUESTED:    5252647  ISSUED:    5153843  USEFUL:     753012  USELESS:     707292
L1I AVERAGE MISS LATENCY: 15.2011 cycles
L2C TOTAL     ACCESS:    2747225  HIT:    2619873  MISS:     127352
L2C LOAD      ACCESS:     151984  HIT:     116355  MISS:      35629
L2C RFO       ACCESS:     104193  HIT:      69846  MISS:      34347
L2C PREFETCH  ACCESS:    2351754  HIT:    2294474  MISS:      57280
L2C WRITEBACK ACCESS:     139294  HIT:     139198  MISS:         96
L2C PREFETCH  REQUESTED:    1241637  ISSUED:    1241614  USEFUL:       5257  USELESS:      52366
L2C AVERAGE MISS LATENCY: 64.214 cycles
LLC TOTAL     ACCESS:     271946  HIT:     238594  MISS:      33352
LLC LOAD      ACCESS:      35626  HIT:      27482  MISS:       8144
LLC RFO       ACCESS:      34347  HIT:      27989  MISS:       6358
LLC PREFETCH  ACCESS:     156707  HIT:     138088  MISS:      18619
LLC WRITEBACK ACCESS:      45266  HIT:      45035  MISS:        231
LLC PREFETCH  REQUESTED:          0  ISSUED:          0  USEFUL:       1260  USELESS:      16367
LLC AVERAGE MISS LATENCY: 179.941 cycles
Major fault: 0 Minor fault: 4161
CPU 0 L1D next line prefetcher final stats

DRAM Statistics
 CHANNEL 0
 RQ ROW_BUFFER_HIT:       4332  ROW_BUFFER_MISS:      28789
 DBUS_CONGESTED:      17584
 WQ ROW_BUFFER_HIT:       1419  ROW_BUFFER_MISS:      13998  FULL:          0

 AVG_CONGESTED_CYCLE: 4

CPU 0 Branch Prediction Accuracy: 94.7729% MPKI: 9.72684 Average ROB Occupancy at Mispredict: 54.2176

Branch types
NOT_BRANCH: 40695383 81.3908%
BRANCH_DIRECT_JUMP: 422107 0.844214%
BRANCH_INDIRECT: 65 0.00013%
BRANCH_CONDITIONAL: 8105005 16.21%
BRANCH_DIRECT_CALL: 374913 0.749826%
BRANCH_INDIRECT_CALL: 13657 0.027314%
BRANCH_RETURN: 388556 0.777112%
BRANCH_OTHER: 0 0%

