Initialize SIGNATURE TABLE
ST_SET: 1
ST_WAY: 256
ST_TAG_BIT: 16
ST_TAG_MASK: ffff

Initialize PATTERN TABLE
PT_SET: 512
PT_WAY: 4
SIG_DELTA_BIT: 7
C_SIG_BIT: 4
C_DELTA_BIT: 4

Initialize PREFETCH FILTER
FILTER_SET: 1024

*** ChampSim Multicore Out-of-Order Simulator ***

Warmup Instructions: 50000000
Simulation Instructions: 50000000
Number of CPUs: 1
LLC sets: 2048
LLC ways: 16
Off-chip DRAM Size: 4096 MB Channels: 1 Width: 64-bit Data Rate: 3200 MT/s

CPU 0 runs /home/ChampSim-master//dpc3_traces/spec_x264_001.champsimtrace.xz
L1I D-JOLT instruction prefetcher has been constructed!
CPU 0 L1D next line prefetcher
Heartbeat CPU 0 instructions: 10000002 cycles: 3059647 heartbeat IPC: 3.26835 cumulative IPC: 3.26835 (Simulation time: 0 hr 1 min 52 sec) 
Heartbeat CPU 0 instructions: 20000002 cycles: 6109306 heartbeat IPC: 3.27906 cumulative IPC: 3.27369 (Simulation time: 0 hr 3 min 35 sec) 
Heartbeat CPU 0 instructions: 30000002 cycles: 9144542 heartbeat IPC: 3.29464 cumulative IPC: 3.28065 (Simulation time: 0 hr 5 min 17 sec) 
Heartbeat CPU 0 instructions: 40000000 cycles: 12188624 heartbeat IPC: 3.28506 cumulative IPC: 3.28175 (Simulation time: 0 hr 6 min 58 sec) 
Heartbeat CPU 0 instructions: 50000000 cycles: 15231388 heartbeat IPC: 3.28649 cumulative IPC: 3.28269 (Simulation time: 0 hr 8 min 39 sec) 

Warmup complete CPU 0 instructions: 50000004 cycles: 15231389 (Simulation time: 0 hr 8 min 39 sec) 

Heartbeat CPU 0 instructions: 60000002 cycles: 21164825 heartbeat IPC: 1.68536 cumulative IPC: 1.68536 (Simulation time: 0 hr 9 min 54 sec) 
Heartbeat CPU 0 instructions: 70000000 cycles: 27076441 heartbeat IPC: 1.69158 cumulative IPC: 1.68847 (Simulation time: 0 hr 11 min 12 sec) 
Heartbeat CPU 0 instructions: 80000003 cycles: 33135541 heartbeat IPC: 1.65041 cumulative IPC: 1.67559 (Simulation time: 0 hr 12 min 24 sec) 
Heartbeat CPU 0 instructions: 90000001 cycles: 39172731 heartbeat IPC: 1.6564 cumulative IPC: 1.67075 (Simulation time: 0 hr 13 min 37 sec) 
Heartbeat CPU 0 instructions: 100000002 cycles: 45072159 heartbeat IPC: 1.69508 cumulative IPC: 1.67556 (Simulation time: 0 hr 14 min 48 sec) 
Finished CPU 0 instructions: 50000002 cycles: 29840771 cumulative IPC: 1.67556 (Simulation time: 0 hr 14 min 48 sec) 

ChampSim completed all CPUs

Region of Interest Statistics

CPU 0 cumulative IPC: 1.67556 instructions: 50000002 cycles: 29840771
L1D TOTAL     ACCESS:   12964741  HIT:   12803710  MISS:     161031
L1D LOAD      ACCESS:    5094163  HIT:    5039110  MISS:      55053
L1D RFO       ACCESS:    2880624  HIT:    2846311  MISS:      34313
L1D PREFETCH  ACCESS:    4989954  HIT:    4918289  MISS:      71665
L1D WRITEBACK ACCESS:          0  HIT:          0  MISS:          0
L1D PREFETCH  REQUESTED:    5110900  ISSUED:    5043985  USEFUL:      25798  USELESS:      45676
L1D AVERAGE MISS LATENCY: 40.8803 cycles
L1I TOTAL     ACCESS:    9448489  HIT:    9046262  MISS:     402227
L1I LOAD      ACCESS:    8036576  HIT:    8028458  MISS:       8118
L1I RFO       ACCESS:          0  HIT:          0  MISS:          0
L1I PREFETCH  ACCESS:    1411913  HIT:    1017804  MISS:     394109
L1I WRITEBACK ACCESS:          0  HIT:          0  MISS:          0
L1I PREFETCH  REQUESTED:    1550599  ISSUED:    1462004  USEFUL:     299177  USELESS:      94970
L1I AVERAGE MISS LATENCY: 14.8905 cycles
L2C TOTAL     ACCESS:     864399  HIT:     825836  MISS:      38563
L2C LOAD      ACCESS:      59569  HIT:      54265  MISS:       5304
L2C RFO       ACCESS:      34098  HIT:      22047  MISS:      12051
L2C PREFETCH  ACCESS:     727641  HIT:     706513  MISS:      21128
L2C WRITEBACK ACCESS:      43091  HIT:      43011  MISS:         80
L2C PREFETCH  REQUESTED:     607805  ISSUED:     604280  USEFUL:       8932  USELESS:      12449
L2C AVERAGE MISS LATENCY: 108.419 cycles
LLC TOTAL     ACCESS:     119376  HIT:      90263  MISS:      29113
LLC LOAD      ACCESS:       5304  HIT:       3130  MISS:       2174
LLC RFO       ACCESS:      12051  HIT:        437  MISS:      11614
LLC PREFETCH  ACCESS:      88434  HIT:      73176  MISS:      15258
LLC WRITEBACK ACCESS:      13587  HIT:      13520  MISS:         67
LLC PREFETCH  REQUESTED:          0  ISSUED:          0  USEFUL:       1678  USELESS:      13921
LLC AVERAGE MISS LATENCY: 167.152 cycles
Major fault: 0 Minor fault: 1285
CPU 0 L1D next line prefetcher final stats

DRAM Statistics
 CHANNEL 0
 RQ ROW_BUFFER_HIT:       8635  ROW_BUFFER_MISS:      20411
 DBUS_CONGESTED:      12225
 WQ ROW_BUFFER_HIT:       2917  ROW_BUFFER_MISS:       9873  FULL:          0

 AVG_CONGESTED_CYCLE: 6

CPU 0 Branch Prediction Accuracy: 97.1633% MPKI: 1.73704 Average ROB Occupancy at Mispredict: 43.0392

Branch types
NOT_BRANCH: 46937921 93.8758%
BRANCH_DIRECT_JUMP: 170816 0.341632%
BRANCH_INDIRECT: 0 0%
BRANCH_CONDITIONAL: 2532774 5.06555%
BRANCH_DIRECT_CALL: 114227 0.228454%
BRANCH_INDIRECT_CALL: 64863 0.129726%
BRANCH_RETURN: 179089 0.358178%
BRANCH_OTHER: 0 0%

