Initialize SIGNATURE TABLE
ST_SET: 1
ST_WAY: 256
ST_TAG_BIT: 16
ST_TAG_MASK: ffff

Initialize PATTERN TABLE
PT_SET: 512
PT_WAY: 4
SIG_DELTA_BIT: 7
C_SIG_BIT: 4
C_DELTA_BIT: 4

Initialize PREFETCH FILTER
FILTER_SET: 1024

*** ChampSim Multicore Out-of-Order Simulator ***

Warmup Instructions: 50000000
Simulation Instructions: 50000000
Number of CPUs: 1
LLC sets: 2048
LLC ways: 16
Off-chip DRAM Size: 4096 MB Channels: 1 Width: 64-bit Data Rate: 3200 MT/s

CPU 0 runs /home/ChampSim-master//dpc3_traces/spec_gobmk_001.champsimtrace.xz
L1I D-JOLT instruction prefetcher has been constructed!
CPU 0 L1D next line prefetcher
Heartbeat CPU 0 instructions: 10000003 cycles: 3509527 heartbeat IPC: 2.84939 cumulative IPC: 2.84939 (Simulation time: 0 hr 2 min 7 sec) 
Heartbeat CPU 0 instructions: 20000002 cycles: 6992602 heartbeat IPC: 2.87103 cumulative IPC: 2.86017 (Simulation time: 0 hr 4 min 17 sec) 
Heartbeat CPU 0 instructions: 30000002 cycles: 10511258 heartbeat IPC: 2.84199 cumulative IPC: 2.85408 (Simulation time: 0 hr 6 min 26 sec) 
Heartbeat CPU 0 instructions: 40000001 cycles: 14030239 heartbeat IPC: 2.84173 cumulative IPC: 2.85099 (Simulation time: 0 hr 8 min 34 sec) 
Heartbeat CPU 0 instructions: 50000001 cycles: 17570257 heartbeat IPC: 2.82484 cumulative IPC: 2.84572 (Simulation time: 0 hr 10 min 37 sec) 

Warmup complete CPU 0 instructions: 50000001 cycles: 17570257 (Simulation time: 0 hr 10 min 37 sec) 

Heartbeat CPU 0 instructions: 60000000 cycles: 26392871 heartbeat IPC: 1.13345 cumulative IPC: 1.13345 (Simulation time: 0 hr 12 min 19 sec) 
Heartbeat CPU 0 instructions: 70000002 cycles: 34860630 heartbeat IPC: 1.18095 cumulative IPC: 1.15671 (Simulation time: 0 hr 14 min 0 sec) 
Heartbeat CPU 0 instructions: 80000003 cycles: 43747422 heartbeat IPC: 1.12527 cumulative IPC: 1.14604 (Simulation time: 0 hr 15 min 47 sec) 
Heartbeat CPU 0 instructions: 90000001 cycles: 52293024 heartbeat IPC: 1.17019 cumulative IPC: 1.15198 (Simulation time: 0 hr 17 min 35 sec) 
Heartbeat CPU 0 instructions: 100000003 cycles: 61167323 heartbeat IPC: 1.12685 cumulative IPC: 1.14687 (Simulation time: 0 hr 19 min 11 sec) 
Finished CPU 0 instructions: 50000002 cycles: 43597066 cumulative IPC: 1.14687 (Simulation time: 0 hr 19 min 11 sec) 

ChampSim completed all CPUs

Region of Interest Statistics

CPU 0 cumulative IPC: 1.14687 instructions: 50000002 cycles: 43597066
L1D TOTAL     ACCESS:   17992953  HIT:   17613439  MISS:     379514
L1D LOAD      ACCESS:    7214997  HIT:    7079627  MISS:     135370
L1D RFO       ACCESS:    3701861  HIT:    3597320  MISS:     104541
L1D PREFETCH  ACCESS:    7076095  HIT:    6936492  MISS:     139603
L1D WRITEBACK ACCESS:          0  HIT:          0  MISS:          0
L1D PREFETCH  REQUESTED:    7220263  ISSUED:    7137522  USEFUL:      44908  USELESS:      94701
L1D AVERAGE MISS LATENCY: 33.765 cycles
L1I TOTAL     ACCESS:   13050090  HIT:   11737473  MISS:    1312617
L1I LOAD      ACCESS:    8966887  HIT:    8884877  MISS:      82010
L1I RFO       ACCESS:          0  HIT:          0  MISS:          0
L1I PREFETCH  ACCESS:    4083203  HIT:    2852596  MISS:    1230607
L1I WRITEBACK ACCESS:          0  HIT:          0  MISS:          0
L1I PREFETCH  REQUESTED:    4170524  ISSUED:    4110140  USEFUL:     663976  USELESS:     566608
L1I AVERAGE MISS LATENCY: 15.2953 cycles
L2C TOTAL     ACCESS:    2480722  HIT:    2354653  MISS:     126069
L2C LOAD      ACCESS:     189318  HIT:     151768  MISS:      37550
L2C RFO       ACCESS:     104205  HIT:      70030  MISS:      34175
L2C PREFETCH  ACCESS:    2047905  HIT:    1993641  MISS:      54264
L2C WRITEBACK ACCESS:     139294  HIT:     139214  MISS:         80
L2C PREFETCH  REQUESTED:    1106521  ISSUED:    1106494  USEFUL:       5655  USELESS:      48852
L2C AVERAGE MISS LATENCY: 64.7223 cycles
LLC TOTAL     ACCESS:     259419  HIT:     225066  MISS:      34353
LLC LOAD      ACCESS:      37548  HIT:      29275  MISS:       8273
LLC RFO       ACCESS:      34175  HIT:      27610  MISS:       6565
LLC PREFETCH  ACCESS:     142607  HIT:     123346  MISS:      19261
LLC WRITEBACK ACCESS:      45089  HIT:      44835  MISS:        254
LLC PREFETCH  REQUESTED:          0  ISSUED:          0  USEFUL:       1422  USELESS:      16685
LLC AVERAGE MISS LATENCY: 179.668 cycles
Major fault: 0 Minor fault: 4160
CPU 0 L1D next line prefetcher final stats

DRAM Statistics
 CHANNEL 0
 RQ ROW_BUFFER_HIT:       4492  ROW_BUFFER_MISS:      29606
 DBUS_CONGESTED:      18125
 WQ ROW_BUFFER_HIT:       1411  ROW_BUFFER_MISS:      14293  FULL:          0

 AVG_CONGESTED_CYCLE: 4

CPU 0 Branch Prediction Accuracy: 94.7729% MPKI: 9.72684 Average ROB Occupancy at Mispredict: 53.628

Branch types
NOT_BRANCH: 40695383 81.3908%
BRANCH_DIRECT_JUMP: 422107 0.844214%
BRANCH_INDIRECT: 65 0.00013%
BRANCH_CONDITIONAL: 8105006 16.21%
BRANCH_DIRECT_CALL: 374913 0.749826%
BRANCH_INDIRECT_CALL: 13657 0.027314%
BRANCH_RETURN: 388556 0.777112%
BRANCH_OTHER: 0 0%

