Initialize SIGNATURE TABLE
ST_SET: 1
ST_WAY: 256
ST_TAG_BIT: 16
ST_TAG_MASK: ffff

Initialize PATTERN TABLE
PT_SET: 512
PT_WAY: 4
SIG_DELTA_BIT: 7
C_SIG_BIT: 4
C_DELTA_BIT: 4

Initialize PREFETCH FILTER
FILTER_SET: 1024

*** ChampSim Multicore Out-of-Order Simulator ***

Warmup Instructions: 50000000
Simulation Instructions: 50000000
Number of CPUs: 1
LLC sets: 2048
LLC ways: 16
Off-chip DRAM Size: 4096 MB Channels: 1 Width: 64-bit Data Rate: 3200 MT/s

CPU 0 runs /home/ChampSim-master//dpc3_traces/spec_x264_001.champsimtrace.xz
L1I D-JOLT instruction prefetcher has been constructed!
CPU 0 L1D next line prefetcher
Heartbeat CPU 0 instructions: 10000002 cycles: 3059661 heartbeat IPC: 3.26834 cumulative IPC: 3.26834 (Simulation time: 0 hr 1 min 46 sec) 
Heartbeat CPU 0 instructions: 20000002 cycles: 6109480 heartbeat IPC: 3.27888 cumulative IPC: 3.2736 (Simulation time: 0 hr 3 min 30 sec) 
Heartbeat CPU 0 instructions: 30000002 cycles: 9144796 heartbeat IPC: 3.29455 cumulative IPC: 3.28055 (Simulation time: 0 hr 5 min 16 sec) 
Heartbeat CPU 0 instructions: 40000000 cycles: 12188970 heartbeat IPC: 3.28496 cumulative IPC: 3.28166 (Simulation time: 0 hr 7 min 1 sec) 
Heartbeat CPU 0 instructions: 50000000 cycles: 15231785 heartbeat IPC: 3.28643 cumulative IPC: 3.28261 (Simulation time: 0 hr 9 min 2 sec) 

Warmup complete CPU 0 instructions: 50000004 cycles: 15231786 (Simulation time: 0 hr 9 min 2 sec) 

Heartbeat CPU 0 instructions: 60000002 cycles: 21162623 heartbeat IPC: 1.6861 cumulative IPC: 1.6861 (Simulation time: 0 hr 10 min 22 sec) 
Heartbeat CPU 0 instructions: 70000000 cycles: 27074766 heartbeat IPC: 1.69143 cumulative IPC: 1.68876 (Simulation time: 0 hr 11 min 40 sec) 
Heartbeat CPU 0 instructions: 80000003 cycles: 33134001 heartbeat IPC: 1.65037 cumulative IPC: 1.67577 (Simulation time: 0 hr 12 min 46 sec) 
Heartbeat CPU 0 instructions: 90000001 cycles: 39173935 heartbeat IPC: 1.65565 cumulative IPC: 1.67069 (Simulation time: 0 hr 13 min 52 sec) 
Heartbeat CPU 0 instructions: 100000002 cycles: 45071551 heartbeat IPC: 1.6956 cumulative IPC: 1.67562 (Simulation time: 0 hr 14 min 56 sec) 
Finished CPU 0 instructions: 50000002 cycles: 29839766 cumulative IPC: 1.67562 (Simulation time: 0 hr 14 min 56 sec) 

ChampSim completed all CPUs

Region of Interest Statistics

CPU 0 cumulative IPC: 1.67562 instructions: 50000002 cycles: 29839766
L1D TOTAL     ACCESS:   12970878  HIT:   12809890  MISS:     160988
L1D LOAD      ACCESS:    5097507  HIT:    5042416  MISS:      55091
L1D RFO       ACCESS:    2880655  HIT:    2846354  MISS:      34301
L1D PREFETCH  ACCESS:    4992716  HIT:    4921120  MISS:      71596
L1D WRITEBACK ACCESS:          0  HIT:          0  MISS:          0
L1D PREFETCH  REQUESTED:    5114237  ISSUED:    5046622  USEFUL:      25760  USELESS:      45645
L1D AVERAGE MISS LATENCY: 40.6989 cycles
L1I TOTAL     ACCESS:    9567515  HIT:    9164217  MISS:     403298
L1I LOAD      ACCESS:    8038352  HIT:    8031206  MISS:       7146
L1I RFO       ACCESS:          0  HIT:          0  MISS:          0
L1I PREFETCH  ACCESS:    1529163  HIT:    1133011  MISS:     396152
L1I WRITEBACK ACCESS:          0  HIT:          0  MISS:          0
L1I PREFETCH  REQUESTED:    1643969  ISSUED:    1610636  USEFUL:     302707  USELESS:      93491
L1I AVERAGE MISS LATENCY: 14.9814 cycles
L2C TOTAL     ACCESS:     861389  HIT:     822790  MISS:      38599
L2C LOAD      ACCESS:      59966  HIT:      54675  MISS:       5291
L2C RFO       ACCESS:      34093  HIT:      22022  MISS:      12071
L2C PREFETCH  ACCESS:     724252  HIT:     703094  MISS:      21158
L2C WRITEBACK ACCESS:      43078  HIT:      42999  MISS:         79
L2C PREFETCH  REQUESTED:     652830  ISSUED:     648304  USEFUL:       8943  USELESS:      12500
L2C AVERAGE MISS LATENCY: 107.477 cycles
LLC TOTAL     ACCESS:     126329  HIT:      97037  MISS:      29292
LLC LOAD      ACCESS:       5290  HIT:       3126  MISS:       2164
LLC RFO       ACCESS:      12069  HIT:        452  MISS:      11617
LLC PREFETCH  ACCESS:      95368  HIT:      79922  MISS:      15446
LLC WRITEBACK ACCESS:      13602  HIT:      13537  MISS:         65
LLC PREFETCH  REQUESTED:          0  ISSUED:          0  USEFUL:       1668  USELESS:      14077
LLC AVERAGE MISS LATENCY: 166.97 cycles
Major fault: 0 Minor fault: 1285
CPU 0 L1D next line prefetcher final stats

DRAM Statistics
 CHANNEL 0
 RQ ROW_BUFFER_HIT:       8714  ROW_BUFFER_MISS:      20513
 DBUS_CONGESTED:      12241
 WQ ROW_BUFFER_HIT:       2916  ROW_BUFFER_MISS:       9910  FULL:          0

 AVG_CONGESTED_CYCLE: 6

CPU 0 Branch Prediction Accuracy: 97.1633% MPKI: 1.73704 Average ROB Occupancy at Mispredict: 43.0759

Branch types
NOT_BRANCH: 46937921 93.8758%
BRANCH_DIRECT_JUMP: 170816 0.341632%
BRANCH_INDIRECT: 0 0%
BRANCH_CONDITIONAL: 2532774 5.06555%
BRANCH_DIRECT_CALL: 114227 0.228454%
BRANCH_INDIRECT_CALL: 64863 0.129726%
BRANCH_RETURN: 179089 0.358178%
BRANCH_OTHER: 0 0%

