Initialize SIGNATURE TABLE
ST_SET: 1
ST_WAY: 256
ST_TAG_BIT: 16
ST_TAG_MASK: ffff

Initialize PATTERN TABLE
PT_SET: 512
PT_WAY: 4
SIG_DELTA_BIT: 7
C_SIG_BIT: 4
C_DELTA_BIT: 4

Initialize PREFETCH FILTER
FILTER_SET: 1024

*** ChampSim Multicore Out-of-Order Simulator ***

Warmup Instructions: 50000000
Simulation Instructions: 50000000
Number of CPUs: 1
LLC sets: 2048
LLC ways: 16
Off-chip DRAM Size: 4096 MB Channels: 1 Width: 64-bit Data Rate: 3200 MT/s

CPU 0 runs /home/ChampSim-master//dpc3_traces/spec_x264_001.champsimtrace.xz
CPU 0 EPI prefetcher
CPU 0 L1D next line prefetcher
Heartbeat CPU 0 instructions: 10000002 cycles: 3059879 heartbeat IPC: 3.2681 cumulative IPC: 3.2681 (Simulation time: 0 hr 1 min 47 sec) 
Heartbeat CPU 0 instructions: 20000002 cycles: 6110118 heartbeat IPC: 3.27843 cumulative IPC: 3.27326 (Simulation time: 0 hr 3 min 34 sec) 
Heartbeat CPU 0 instructions: 30000002 cycles: 9145557 heartbeat IPC: 3.29442 cumulative IPC: 3.28028 (Simulation time: 0 hr 5 min 23 sec) 
Heartbeat CPU 0 instructions: 40000000 cycles: 12190015 heartbeat IPC: 3.28466 cumulative IPC: 3.28137 (Simulation time: 0 hr 7 min 12 sec) 
Heartbeat CPU 0 instructions: 50000000 cycles: 15232736 heartbeat IPC: 3.28653 cumulative IPC: 3.2824 (Simulation time: 0 hr 9 min 0 sec) 

Warmup complete CPU 0 instructions: 50000004 cycles: 15232737 (Simulation time: 0 hr 9 min 0 sec) 

Heartbeat CPU 0 instructions: 60000001 cycles: 21281312 heartbeat IPC: 1.65328 cumulative IPC: 1.65328 (Simulation time: 0 hr 10 min 17 sec) 
Heartbeat CPU 0 instructions: 70000000 cycles: 27299792 heartbeat IPC: 1.66155 cumulative IPC: 1.6574 (Simulation time: 0 hr 11 min 36 sec) 
Heartbeat CPU 0 instructions: 80000003 cycles: 33487997 heartbeat IPC: 1.61598 cumulative IPC: 1.64336 (Simulation time: 0 hr 12 min 54 sec) 
Heartbeat CPU 0 instructions: 90000002 cycles: 39650416 heartbeat IPC: 1.62274 cumulative IPC: 1.63816 (Simulation time: 0 hr 14 min 10 sec) 
Heartbeat CPU 0 instructions: 100000002 cycles: 45658775 heartbeat IPC: 1.66435 cumulative IPC: 1.64333 (Simulation time: 0 hr 15 min 25 sec) 
Finished CPU 0 instructions: 50000002 cycles: 30426039 cumulative IPC: 1.64333 (Simulation time: 0 hr 15 min 25 sec) 

ChampSim completed all CPUs

Region of Interest Statistics

CPU 0 cumulative IPC: 1.64333 instructions: 50000002 cycles: 30426039
L1D TOTAL     ACCESS:   13011246  HIT:   12848447  MISS:     162799
L1D LOAD      ACCESS:    5119539  HIT:    5064108  MISS:      55431
L1D RFO       ACCESS:    2880963  HIT:    2846601  MISS:      34362
L1D PREFETCH  ACCESS:    5010744  HIT:    4937738  MISS:      73006
L1D WRITEBACK ACCESS:          0  HIT:          0  MISS:          0
L1D PREFETCH  REQUESTED:    5135898  ISSUED:    5070347  USEFUL:      25914  USELESS:      46901
L1D AVERAGE MISS LATENCY: 40.2538 cycles
L1I TOTAL     ACCESS:   15905211  HIT:   15622122  MISS:     283089
L1I LOAD      ACCESS:    8015752  HIT:    7945432  MISS:      70320
L1I RFO       ACCESS:          0  HIT:          0  MISS:          0
L1I PREFETCH  ACCESS:    7889459  HIT:    7676690  MISS:     212769
L1I WRITEBACK ACCESS:          0  HIT:          0  MISS:          0
L1I PREFETCH  REQUESTED:    8761613  ISSUED:    8761613  USEFUL:     187956  USELESS:      24845
L1I AVERAGE MISS LATENCY: 14.5885 cycles
L2C TOTAL     ACCESS:     729926  HIT:     690937  MISS:      38989
L2C LOAD      ACCESS:     122051  HIT:     116614  MISS:       5437
L2C RFO       ACCESS:      34126  HIT:      22020  MISS:      12106
L2C PREFETCH  ACCESS:     530479  HIT:     509112  MISS:      21367
L2C WRITEBACK ACCESS:      43270  HIT:      43191  MISS:         79
L2C PREFETCH  REQUESTED:     475682  ISSUED:     474845  USEFUL:       8951  USELESS:      12581
L2C AVERAGE MISS LATENCY: 106.939 cycles
LLC TOTAL     ACCESS:     126521  HIT:      97232  MISS:      29289
LLC LOAD      ACCESS:       5413  HIT:       3213  MISS:       2200
LLC RFO       ACCESS:      12106  HIT:        506  MISS:      11600
LLC PREFETCH  ACCESS:      95337  HIT:      79923  MISS:      15414
LLC WRITEBACK ACCESS:      13665  HIT:      13590  MISS:         75
LLC PREFETCH  REQUESTED:          0  ISSUED:          0  USEFUL:       1643  USELESS:      13872
LLC AVERAGE MISS LATENCY: 166.528 cycles
Major fault: 0 Minor fault: 1285
CPU 0 L1I EPI prefetcher final stats
CPU 0 L1D next line prefetcher final stats

DRAM Statistics
 CHANNEL 0
 RQ ROW_BUFFER_HIT:       8732  ROW_BUFFER_MISS:      20482
 DBUS_CONGESTED:      12292
 WQ ROW_BUFFER_HIT:       2981  ROW_BUFFER_MISS:      10017  FULL:          0

 AVG_CONGESTED_CYCLE: 6

CPU 0 Branch Prediction Accuracy: 97.1633% MPKI: 1.73704 Average ROB Occupancy at Mispredict: 41.1911

Branch types
NOT_BRANCH: 46937921 93.8758%
BRANCH_DIRECT_JUMP: 170816 0.341632%
BRANCH_INDIRECT: 0 0%
BRANCH_CONDITIONAL: 2532774 5.06555%
BRANCH_DIRECT_CALL: 114227 0.228454%
BRANCH_INDIRECT_CALL: 64863 0.129726%
BRANCH_RETURN: 179089 0.358178%
BRANCH_OTHER: 0 0%

