Initialize SIGNATURE TABLE
ST_SET: 1
ST_WAY: 256
ST_TAG_BIT: 16
ST_TAG_MASK: ffff

Initialize PATTERN TABLE
PT_SET: 512
PT_WAY: 4
SIG_DELTA_BIT: 7
C_SIG_BIT: 4
C_DELTA_BIT: 4

Initialize PREFETCH FILTER
FILTER_SET: 1024

*** ChampSim Multicore Out-of-Order Simulator ***

Warmup Instructions: 50000000
Simulation Instructions: 50000000
Number of CPUs: 1
LLC sets: 2048
LLC ways: 16
Off-chip DRAM Size: 4096 MB Channels: 1 Width: 64-bit Data Rate: 3200 MT/s

CPU 0 runs /home/ChampSim-master//dpc3_traces/spec_gobmk_001.champsimtrace.xz
L1I D-JOLT instruction prefetcher has been constructed!
CPU 0 L1D next line prefetcher
Heartbeat CPU 0 instructions: 10000003 cycles: 3506905 heartbeat IPC: 2.85152 cumulative IPC: 2.85152 (Simulation time: 0 hr 2 min 37 sec) 
Heartbeat CPU 0 instructions: 20000002 cycles: 6987359 heartbeat IPC: 2.87319 cumulative IPC: 2.86231 (Simulation time: 0 hr 5 min 19 sec) 
Heartbeat CPU 0 instructions: 30000002 cycles: 10506067 heartbeat IPC: 2.84195 cumulative IPC: 2.85549 (Simulation time: 0 hr 7 min 44 sec) 
Heartbeat CPU 0 instructions: 40000001 cycles: 14025036 heartbeat IPC: 2.84174 cumulative IPC: 2.85204 (Simulation time: 0 hr 10 min 9 sec) 
Heartbeat CPU 0 instructions: 50000001 cycles: 17565133 heartbeat IPC: 2.82478 cumulative IPC: 2.84655 (Simulation time: 0 hr 12 min 41 sec) 

Warmup complete CPU 0 instructions: 50000001 cycles: 17565133 (Simulation time: 0 hr 12 min 41 sec) 

Heartbeat CPU 0 instructions: 60000000 cycles: 26337373 heartbeat IPC: 1.13996 cumulative IPC: 1.13996 (Simulation time: 0 hr 14 min 41 sec) 
Heartbeat CPU 0 instructions: 70000002 cycles: 34744823 heartbeat IPC: 1.18942 cumulative IPC: 1.16417 (Simulation time: 0 hr 16 min 34 sec) 
Heartbeat CPU 0 instructions: 80000003 cycles: 43585547 heartbeat IPC: 1.13113 cumulative IPC: 1.15294 (Simulation time: 0 hr 18 min 28 sec) 
Heartbeat CPU 0 instructions: 90000001 cycles: 52084736 heartbeat IPC: 1.17658 cumulative IPC: 1.15876 (Simulation time: 0 hr 20 min 19 sec) 
Heartbeat CPU 0 instructions: 100000003 cycles: 60906365 heartbeat IPC: 1.13358 cumulative IPC: 1.15364 (Simulation time: 0 hr 22 min 12 sec) 
Finished CPU 0 instructions: 50000002 cycles: 43341232 cumulative IPC: 1.15364 (Simulation time: 0 hr 22 min 12 sec) 

ChampSim completed all CPUs

Region of Interest Statistics

CPU 0 cumulative IPC: 1.15364 instructions: 50000002 cycles: 43341232
L1D TOTAL     ACCESS:   17982633  HIT:   17603132  MISS:     379501
L1D LOAD      ACCESS:    7210443  HIT:    7075396  MISS:     135047
L1D RFO       ACCESS:    3700670  HIT:    3596095  MISS:     104575
L1D PREFETCH  ACCESS:    7071520  HIT:    6931641  MISS:     139879
L1D WRITEBACK ACCESS:          0  HIT:          0  MISS:          0
L1D PREFETCH  REQUESTED:    7215809  ISSUED:    7133050  USEFUL:      45205  USELESS:      94680
L1D AVERAGE MISS LATENCY: 33.8254 cycles
L1I TOTAL     ACCESS:   14101747  HIT:   12432778  MISS:    1668969
L1I LOAD      ACCESS:    8977406  HIT:    8925697  MISS:      51709
L1I RFO       ACCESS:          0  HIT:          0  MISS:          0
L1I PREFETCH  ACCESS:    5124341  HIT:    3507081  MISS:    1617260
L1I WRITEBACK ACCESS:          0  HIT:          0  MISS:          0
L1I PREFETCH  REQUESTED:    5301147  ISSUED:    5168334  USEFUL:     806335  USELESS:     810897
L1I AVERAGE MISS LATENCY: 15.2524 cycles
L2C TOTAL     ACCESS:    2976052  HIT:    2848278  MISS:     127774
L2C LOAD      ACCESS:     161443  HIT:     125534  MISS:      35909
L2C RFO       ACCESS:     104209  HIT:      69798  MISS:      34411
L2C PREFETCH  ACCESS:    2571107  HIT:    2513769  MISS:      57338
L2C WRITEBACK ACCESS:     139293  HIT:     139177  MISS:        116
L2C PREFETCH  REQUESTED:    1350645  ISSUED:    1350460  USEFUL:       5421  USELESS:      52183
L2C AVERAGE MISS LATENCY: 64.0807 cycles
LLC TOTAL     ACCESS:     273056  HIT:     238428  MISS:      34628
LLC LOAD      ACCESS:      35907  HIT:      27725  MISS:       8182
LLC RFO       ACCESS:      34410  HIT:      27959  MISS:       6451
LLC PREFETCH  ACCESS:     157285  HIT:     137525  MISS:      19760
LLC WRITEBACK ACCESS:      45454  HIT:      45219  MISS:        235
LLC PREFETCH  REQUESTED:          0  ISSUED:          0  USEFUL:       1356  USELESS:      17282
LLC AVERAGE MISS LATENCY: 179.152 cycles
Major fault: 0 Minor fault: 4161
CPU 0 L1D next line prefetcher final stats

DRAM Statistics
 CHANNEL 0
 RQ ROW_BUFFER_HIT:       4493  ROW_BUFFER_MISS:      29898
 DBUS_CONGESTED:      18079
 WQ ROW_BUFFER_HIT:       1404  ROW_BUFFER_MISS:      14243  FULL:          0

 AVG_CONGESTED_CYCLE: 4

CPU 0 Branch Prediction Accuracy: 94.7729% MPKI: 9.72684 Average ROB Occupancy at Mispredict: 54.0384

Branch types
NOT_BRANCH: 40695383 81.3908%
BRANCH_DIRECT_JUMP: 422107 0.844214%
BRANCH_INDIRECT: 65 0.00013%
BRANCH_CONDITIONAL: 8105005 16.21%
BRANCH_DIRECT_CALL: 374913 0.749826%
BRANCH_INDIRECT_CALL: 13657 0.027314%
BRANCH_RETURN: 388556 0.777112%
BRANCH_OTHER: 0 0%

