Initialize SIGNATURE TABLE
ST_SET: 1
ST_WAY: 256
ST_TAG_BIT: 16
ST_TAG_MASK: ffff

Initialize PATTERN TABLE
PT_SET: 512
PT_WAY: 4
SIG_DELTA_BIT: 7
C_SIG_BIT: 4
C_DELTA_BIT: 4

Initialize PREFETCH FILTER
FILTER_SET: 1024

*** ChampSim Multicore Out-of-Order Simulator ***

Warmup Instructions: 50000000
Simulation Instructions: 50000000
Number of CPUs: 1
LLC sets: 2048
LLC ways: 16
Off-chip DRAM Size: 4096 MB Channels: 1 Width: 64-bit Data Rate: 3200 MT/s

CPU 0 runs /home/ChampSim-master//dpc3_traces/spec_gcc_001.champsimtrace.xz
L1I D-JOLT instruction prefetcher has been constructed!
CPU 0 L1D next line prefetcher
Heartbeat CPU 0 instructions: 10000003 cycles: 3219051 heartbeat IPC: 3.10651 cumulative IPC: 3.10651 (Simulation time: 0 hr 2 min 25 sec) 
Heartbeat CPU 0 instructions: 20000002 cycles: 6463655 heartbeat IPC: 3.08204 cumulative IPC: 3.09422 (Simulation time: 0 hr 4 min 51 sec) 
Heartbeat CPU 0 instructions: 30000000 cycles: 9664231 heartbeat IPC: 3.12444 cumulative IPC: 3.10423 (Simulation time: 0 hr 7 min 14 sec) 
Heartbeat CPU 0 instructions: 40000001 cycles: 12905093 heartbeat IPC: 3.0856 cumulative IPC: 3.09955 (Simulation time: 0 hr 9 min 36 sec) 
Heartbeat CPU 0 instructions: 50000001 cycles: 16145189 heartbeat IPC: 3.08633 cumulative IPC: 3.0969 (Simulation time: 0 hr 11 min 59 sec) 

Warmup complete CPU 0 instructions: 50000001 cycles: 16145189 (Simulation time: 0 hr 11 min 59 sec) 

Heartbeat CPU 0 instructions: 60000000 cycles: 24020607 heartbeat IPC: 1.26977 cumulative IPC: 1.26977 (Simulation time: 0 hr 14 min 18 sec) 
Heartbeat CPU 0 instructions: 70000002 cycles: 31952027 heartbeat IPC: 1.26081 cumulative IPC: 1.26528 (Simulation time: 0 hr 16 min 27 sec) 
Heartbeat CPU 0 instructions: 80000000 cycles: 39520081 heartbeat IPC: 1.32134 cumulative IPC: 1.28343 (Simulation time: 0 hr 18 min 30 sec) 
Heartbeat CPU 0 instructions: 90000001 cycles: 47443423 heartbeat IPC: 1.26209 cumulative IPC: 1.27803 (Simulation time: 0 hr 20 min 27 sec) 
Heartbeat CPU 0 instructions: 100000000 cycles: 55684793 heartbeat IPC: 1.21339 cumulative IPC: 1.26455 (Simulation time: 0 hr 22 min 29 sec) 
Finished CPU 0 instructions: 50000000 cycles: 39539608 cumulative IPC: 1.26455 (Simulation time: 0 hr 22 min 29 sec) 

ChampSim completed all CPUs

Region of Interest Statistics

CPU 0 cumulative IPC: 1.26455 instructions: 50000000 cycles: 39539608
L1D TOTAL     ACCESS:   19325064  HIT:   18219894  MISS:    1105170
L1D LOAD      ACCESS:    7233304  HIT:    6754019  MISS:     479285
L1D RFO       ACCESS:    5117288  HIT:    5037634  MISS:      79654
L1D PREFETCH  ACCESS:    6974472  HIT:    6428241  MISS:     546231
L1D WRITEBACK ACCESS:          0  HIT:          0  MISS:          0
L1D PREFETCH  REQUESTED:    7276561  ISSUED:    7178754  USEFUL:     275994  USELESS:     270250
L1D AVERAGE MISS LATENCY: 25.3688 cycles
L1I TOTAL     ACCESS:   13594546  HIT:   12959672  MISS:     634874
L1I LOAD      ACCESS:    9288618  HIT:    9226884  MISS:      61734
L1I RFO       ACCESS:          0  HIT:          0  MISS:          0
L1I PREFETCH  ACCESS:    4305928  HIT:    3732788  MISS:     573140
L1I WRITEBACK ACCESS:          0  HIT:          0  MISS:          0
L1I PREFETCH  REQUESTED:    4428537  ISSUED:    4426234  USEFUL:     343152  USELESS:     230018
L1I AVERAGE MISS LATENCY: 18.8174 cycles
L2C TOTAL     ACCESS:    2918145  HIT:    2674454  MISS:     243691
L2C LOAD      ACCESS:     509745  HIT:     417784  MISS:      91961
L2C RFO       ACCESS:      75003  HIT:      36941  MISS:      38062
L2C PREFETCH  ACCESS:    2079641  HIT:    1966336  MISS:     113305
L2C WRITEBACK ACCESS:     253756  HIT:     253393  MISS:        363
L2C PREFETCH  REQUESTED:    1809102  ISSUED:    1808971  USEFUL:      31514  USELESS:      81535
L2C AVERAGE MISS LATENCY: 62.7423 cycles
LLC TOTAL     ACCESS:     638925  HIT:     565354  MISS:      73571
LLC LOAD      ACCESS:      91775  HIT:      79371  MISS:      12404
LLC RFO       ACCESS:      38062  HIT:      17401  MISS:      20661
LLC PREFETCH  ACCESS:     417970  HIT:     378491  MISS:      39479
LLC WRITEBACK ACCESS:      91118  HIT:      90091  MISS:       1027
LLC PREFETCH  REQUESTED:          0  ISSUED:          0  USEFUL:      13671  USELESS:      28636
LLC AVERAGE MISS LATENCY: 182.875 cycles
Major fault: 0 Minor fault: 6867
CPU 0 L1D next line prefetcher final stats

DRAM Statistics
 CHANNEL 0
 RQ ROW_BUFFER_HIT:      19707  ROW_BUFFER_MISS:      52830
 DBUS_CONGESTED:      35834
 WQ ROW_BUFFER_HIT:       4538  ROW_BUFFER_MISS:      23017  FULL:          0

 AVG_CONGESTED_CYCLE: 6

CPU 0 Branch Prediction Accuracy: 95.8872% MPKI: 9.67286 Average ROB Occupancy at Mispredict: 66.7348

Branch types
NOT_BRANCH: 38240102 76.4802%
BRANCH_DIRECT_JUMP: 653296 1.30659%
BRANCH_INDIRECT: 37098 0.074196%
BRANCH_CONDITIONAL: 8897819 17.7956%
BRANCH_DIRECT_CALL: 992620 1.98524%
BRANCH_INDIRECT_CALL: 93046 0.186092%
BRANCH_RETURN: 1085674 2.17135%
BRANCH_OTHER: 0 0%

