Initialize SIGNATURE TABLE
ST_SET: 1
ST_WAY: 256
ST_TAG_BIT: 16
ST_TAG_MASK: ffff

Initialize PATTERN TABLE
PT_SET: 512
PT_WAY: 4
SIG_DELTA_BIT: 7
C_SIG_BIT: 4
C_DELTA_BIT: 4

Initialize PREFETCH FILTER
FILTER_SET: 1024

*** ChampSim Multicore Out-of-Order Simulator ***

Warmup Instructions: 50000000
Simulation Instructions: 50000000
Number of CPUs: 1
LLC sets: 2048
LLC ways: 16
Off-chip DRAM Size: 4096 MB Channels: 1 Width: 64-bit Data Rate: 3200 MT/s

CPU 0 runs /home/ChampSim-master//dpc3_traces/spec_gobmk_001.champsimtrace.xz
L1I D-JOLT instruction prefetcher has been constructed!
CPU 0 L1D next line prefetcher
Heartbeat CPU 0 instructions: 10000003 cycles: 3508880 heartbeat IPC: 2.84991 cumulative IPC: 2.84991 (Simulation time: 0 hr 2 min 18 sec) 
Heartbeat CPU 0 instructions: 20000002 cycles: 6989034 heartbeat IPC: 2.87344 cumulative IPC: 2.86163 (Simulation time: 0 hr 4 min 37 sec) 
Heartbeat CPU 0 instructions: 30000002 cycles: 10507860 heartbeat IPC: 2.84186 cumulative IPC: 2.85501 (Simulation time: 0 hr 6 min 55 sec) 
Heartbeat CPU 0 instructions: 40000001 cycles: 14026790 heartbeat IPC: 2.84177 cumulative IPC: 2.85169 (Simulation time: 0 hr 9 min 13 sec) 
Heartbeat CPU 0 instructions: 50000001 cycles: 17566787 heartbeat IPC: 2.82486 cumulative IPC: 2.84628 (Simulation time: 0 hr 11 min 36 sec) 

Warmup complete CPU 0 instructions: 50000001 cycles: 17566787 (Simulation time: 0 hr 11 min 36 sec) 

Heartbeat CPU 0 instructions: 60000000 cycles: 26309870 heartbeat IPC: 1.14376 cumulative IPC: 1.14376 (Simulation time: 0 hr 13 min 46 sec) 
Heartbeat CPU 0 instructions: 70000002 cycles: 34692333 heartbeat IPC: 1.19297 cumulative IPC: 1.16785 (Simulation time: 0 hr 15 min 36 sec) 
Heartbeat CPU 0 instructions: 80000003 cycles: 43507583 heartbeat IPC: 1.1344 cumulative IPC: 1.15648 (Simulation time: 0 hr 17 min 21 sec) 
Heartbeat CPU 0 instructions: 90000001 cycles: 51988410 heartbeat IPC: 1.17913 cumulative IPC: 1.16206 (Simulation time: 0 hr 19 min 4 sec) 
Heartbeat CPU 0 instructions: 100000003 cycles: 60784217 heartbeat IPC: 1.13691 cumulative IPC: 1.15694 (Simulation time: 0 hr 20 min 48 sec) 
Finished CPU 0 instructions: 50000002 cycles: 43217430 cumulative IPC: 1.15694 (Simulation time: 0 hr 20 min 48 sec) 

ChampSim completed all CPUs

Region of Interest Statistics

CPU 0 cumulative IPC: 1.15694 instructions: 50000002 cycles: 43217430
L1D TOTAL     ACCESS:   17975525  HIT:   17596032  MISS:     379493
L1D LOAD      ACCESS:    7207059  HIT:    7071630  MISS:     135429
L1D RFO       ACCESS:    3700666  HIT:    3596077  MISS:     104589
L1D PREFETCH  ACCESS:    7067800  HIT:    6928325  MISS:     139475
L1D WRITEBACK ACCESS:          0  HIT:          0  MISS:          0
L1D PREFETCH  REQUESTED:    7212472  ISSUED:    7129749  USEFUL:      44800  USELESS:      94681
L1D AVERAGE MISS LATENCY: 33.764 cycles
L1I TOTAL     ACCESS:   14377829  HIT:   12721145  MISS:    1656684
L1I LOAD      ACCESS:    8969938  HIT:    8931196  MISS:      38742
L1I RFO       ACCESS:          0  HIT:          0  MISS:          0
L1I PREFETCH  ACCESS:    5407891  HIT:    3789949  MISS:    1617942
L1I WRITEBACK ACCESS:          0  HIT:          0  MISS:          0
L1I PREFETCH  REQUESTED:    5703833  ISSUED:    5453203  USEFUL:     825517  USELESS:     792390
L1I AVERAGE MISS LATENCY: 15.1894 cycles
L2C TOTAL     ACCESS:    2999711  HIT:    2871960  MISS:     127751
L2C LOAD      ACCESS:     146321  HIT:     110799  MISS:      35522
L2C RFO       ACCESS:     104234  HIT:      69771  MISS:      34463
L2C PREFETCH  ACCESS:    2609863  HIT:    2552191  MISS:      57672
L2C WRITEBACK ACCESS:     139293  HIT:     139199  MISS:         94
L2C PREFETCH  REQUESTED:    1460040  ISSUED:    1459946  USEFUL:       5160  USELESS:      52842
L2C AVERAGE MISS LATENCY: 64.0183 cycles
LLC TOTAL     ACCESS:     280737  HIT:     246357  MISS:      34380
LLC LOAD      ACCESS:      35519  HIT:      27339  MISS:       8180
LLC RFO       ACCESS:      34463  HIT:      27997  MISS:       6466
LLC PREFETCH  ACCESS:     165279  HIT:     145778  MISS:      19501
LLC WRITEBACK ACCESS:      45476  HIT:      45243  MISS:        233
LLC PREFETCH  REQUESTED:          0  ISSUED:          0  USEFUL:       1278  USELESS:      17142
LLC AVERAGE MISS LATENCY: 179.206 cycles
Major fault: 0 Minor fault: 4161
CPU 0 L1D next line prefetcher final stats

DRAM Statistics
 CHANNEL 0
 RQ ROW_BUFFER_HIT:       4441  ROW_BUFFER_MISS:      29705
 DBUS_CONGESTED:      18429
 WQ ROW_BUFFER_HIT:       1455  ROW_BUFFER_MISS:      14284  FULL:          0

 AVG_CONGESTED_CYCLE: 4

CPU 0 Branch Prediction Accuracy: 94.7729% MPKI: 9.72684 Average ROB Occupancy at Mispredict: 54.3466

Branch types
NOT_BRANCH: 40695383 81.3908%
BRANCH_DIRECT_JUMP: 422107 0.844214%
BRANCH_INDIRECT: 65 0.00013%
BRANCH_CONDITIONAL: 8105005 16.21%
BRANCH_DIRECT_CALL: 374913 0.749826%
BRANCH_INDIRECT_CALL: 13657 0.027314%
BRANCH_RETURN: 388556 0.777112%
BRANCH_OTHER: 0 0%

