Initialize SIGNATURE TABLE
ST_SET: 1
ST_WAY: 256
ST_TAG_BIT: 16
ST_TAG_MASK: ffff

Initialize PATTERN TABLE
PT_SET: 512
PT_WAY: 4
SIG_DELTA_BIT: 7
C_SIG_BIT: 4
C_DELTA_BIT: 4

Initialize PREFETCH FILTER
FILTER_SET: 1024

*** ChampSim Multicore Out-of-Order Simulator ***

Warmup Instructions: 50000000
Simulation Instructions: 50000000
Number of CPUs: 1
LLC sets: 2048
LLC ways: 16
Off-chip DRAM Size: 4096 MB Channels: 1 Width: 64-bit Data Rate: 3200 MT/s

CPU 0 runs /home/ChampSim-master//dpc3_traces/spec_gobmk_002.champsimtrace.xz
CPU 0 EPI prefetcher
CPU 0 L1D next line prefetcher
Heartbeat CPU 0 instructions: 10000001 cycles: 3287534 heartbeat IPC: 3.04179 cumulative IPC: 3.04179 (Simulation time: 0 hr 2 min 46 sec) 
Heartbeat CPU 0 instructions: 20000000 cycles: 6619201 heartbeat IPC: 3.0015 cumulative IPC: 3.02151 (Simulation time: 0 hr 5 min 41 sec) 
Heartbeat CPU 0 instructions: 30000000 cycles: 9957224 heartbeat IPC: 2.99579 cumulative IPC: 3.01289 (Simulation time: 0 hr 8 min 35 sec) 
Heartbeat CPU 0 instructions: 40000000 cycles: 13266694 heartbeat IPC: 3.02163 cumulative IPC: 3.01507 (Simulation time: 0 hr 11 min 34 sec) 
Heartbeat CPU 0 instructions: 50000003 cycles: 16530318 heartbeat IPC: 3.06408 cumulative IPC: 3.02475 (Simulation time: 0 hr 15 min 0 sec) 

Warmup complete CPU 0 instructions: 50000003 cycles: 16530318 (Simulation time: 0 hr 15 min 0 sec) 

Heartbeat CPU 0 instructions: 60000003 cycles: 23950310 heartbeat IPC: 1.34771 cumulative IPC: 1.34771 (Simulation time: 0 hr 17 min 49 sec) 
Heartbeat CPU 0 instructions: 70000003 cycles: 31303546 heartbeat IPC: 1.35995 cumulative IPC: 1.3538 (Simulation time: 0 hr 20 min 15 sec) 
Heartbeat CPU 0 instructions: 80000000 cycles: 38549993 heartbeat IPC: 1.37999 cumulative IPC: 1.36242 (Simulation time: 0 hr 22 min 40 sec) 
Heartbeat CPU 0 instructions: 90000001 cycles: 46101374 heartbeat IPC: 1.32426 cumulative IPC: 1.35267 (Simulation time: 0 hr 24 min 53 sec) 
Heartbeat CPU 0 instructions: 100000003 cycles: 53877649 heartbeat IPC: 1.28596 cumulative IPC: 1.33878 (Simulation time: 0 hr 27 min 9 sec) 
Finished CPU 0 instructions: 50000000 cycles: 37347331 cumulative IPC: 1.33878 (Simulation time: 0 hr 27 min 9 sec) 

ChampSim completed all CPUs

Region of Interest Statistics

CPU 0 cumulative IPC: 1.33878 instructions: 50000000 cycles: 37347331
L1D TOTAL     ACCESS:   17628673  HIT:   17505551  MISS:     123122
L1D LOAD      ACCESS:    6659641  HIT:    6625389  MISS:      34252
L1D RFO       ACCESS:    4387902  HIT:    4345215  MISS:      42687
L1D PREFETCH  ACCESS:    6581130  HIT:    6534947  MISS:      46183
L1D WRITEBACK ACCESS:          0  HIT:          0  MISS:          0
L1D PREFETCH  REQUESTED:    6662036  ISSUED:    6594792  USEFUL:      17116  USELESS:      29248
L1D AVERAGE MISS LATENCY: 50.0316 cycles
L1I TOTAL     ACCESS:   54099696  HIT:   51525184  MISS:    2574512
L1I LOAD      ACCESS:    8865489  HIT:    8748745  MISS:     116744
L1I RFO       ACCESS:          0  HIT:          0  MISS:          0
L1I PREFETCH  ACCESS:   45234207  HIT:   42776439  MISS:    2457768
L1I WRITEBACK ACCESS:          0  HIT:          0  MISS:          0
L1I PREFETCH  REQUESTED:   61501945  ISSUED:   61501945  USEFUL:    1005405  USELESS:    1452374
L1I AVERAGE MISS LATENCY: 14.7193 cycles
L2C TOTAL     ACCESS:    4351423  HIT:    4313123  MISS:      38300
L2C LOAD      ACCESS:     133898  HIT:     120275  MISS:      13623
L2C RFO       ACCESS:      42547  HIT:      39666  MISS:       2881
L2C PREFETCH  ACCESS:    4100776  HIT:    4079143  MISS:      21633
L2C WRITEBACK ACCESS:      74202  HIT:      74039  MISS:        163
L2C PREFETCH  REQUESTED:    4050727  ISSUED:    4049868  USEFUL:       2276  USELESS:      19646
L2C AVERAGE MISS LATENCY: 121.229 cycles
LLC TOTAL     ACCESS:     110001  HIT:      70533  MISS:      39468
LLC LOAD      ACCESS:      13623  HIT:       5226  MISS:       8397
LLC RFO       ACCESS:       2881  HIT:       1274  MISS:       1607
LLC PREFETCH  ACCESS:      75417  HIT:      46599  MISS:      28818
LLC WRITEBACK ACCESS:      18080  HIT:      17434  MISS:        646
LLC PREFETCH  REQUESTED:          0  ISSUED:          0  USEFUL:       2606  USELESS:      24955
LLC AVERAGE MISS LATENCY: 186.205 cycles
Major fault: 0 Minor fault: 2776
CPU 0 L1I EPI prefetcher final stats
CPU 0 L1D next line prefetcher final stats

DRAM Statistics
 CHANNEL 0
 RQ ROW_BUFFER_HIT:       3112  ROW_BUFFER_MISS:      35710
 DBUS_CONGESTED:      24509
 WQ ROW_BUFFER_HIT:        740  ROW_BUFFER_MISS:      15249  FULL:          0

 AVG_CONGESTED_CYCLE: 5

CPU 0 Branch Prediction Accuracy: 93.9974% MPKI: 10.2447 Average ROB Occupancy at Mispredict: 39.9401

Branch types
NOT_BRANCH: 41466063 82.9321%
BRANCH_DIRECT_JUMP: 464313 0.928626%
BRANCH_INDIRECT: 32 6.4e-05%
BRANCH_CONDITIONAL: 7069456 14.1389%
BRANCH_DIRECT_CALL: 499587 0.999174%
BRANCH_INDIRECT_CALL: 342 0.000684%
BRANCH_RETURN: 499906 0.999812%
BRANCH_OTHER: 0 0%

