Initialize SIGNATURE TABLE
ST_SET: 1
ST_WAY: 256
ST_TAG_BIT: 16
ST_TAG_MASK: ffff

Initialize PATTERN TABLE
PT_SET: 512
PT_WAY: 4
SIG_DELTA_BIT: 7
C_SIG_BIT: 4
C_DELTA_BIT: 4

Initialize PREFETCH FILTER
FILTER_SET: 1024

*** ChampSim Multicore Out-of-Order Simulator ***

Warmup Instructions: 50000000
Simulation Instructions: 50000000
Number of CPUs: 1
LLC sets: 2048
LLC ways: 16
Off-chip DRAM Size: 4096 MB Channels: 1 Width: 64-bit Data Rate: 3200 MT/s

CPU 0 runs /home/ChampSim-master//dpc3_traces/spec_gobmk_001.champsimtrace.xz
CPU 0 EPI prefetcher
CPU 0 L1D next line prefetcher
Heartbeat CPU 0 instructions: 10000003 cycles: 3508686 heartbeat IPC: 2.85007 cumulative IPC: 2.85007 (Simulation time: 0 hr 3 min 4 sec) 
Heartbeat CPU 0 instructions: 20000002 cycles: 6990182 heartbeat IPC: 2.87233 cumulative IPC: 2.86116 (Simulation time: 0 hr 6 min 18 sec) 
Heartbeat CPU 0 instructions: 30000002 cycles: 10509951 heartbeat IPC: 2.8411 cumulative IPC: 2.85444 (Simulation time: 0 hr 9 min 26 sec) 
Heartbeat CPU 0 instructions: 40000001 cycles: 14029918 heartbeat IPC: 2.84094 cumulative IPC: 2.85105 (Simulation time: 0 hr 12 min 21 sec) 
Heartbeat CPU 0 instructions: 50000001 cycles: 17570685 heartbeat IPC: 2.82425 cumulative IPC: 2.84565 (Simulation time: 0 hr 15 min 5 sec) 

Warmup complete CPU 0 instructions: 50000001 cycles: 17570685 (Simulation time: 0 hr 15 min 5 sec) 

Heartbeat CPU 0 instructions: 60000000 cycles: 26349593 heartbeat IPC: 1.13909 cumulative IPC: 1.13909 (Simulation time: 0 hr 17 min 35 sec) 
Heartbeat CPU 0 instructions: 70000002 cycles: 34779055 heartbeat IPC: 1.18632 cumulative IPC: 1.16223 (Simulation time: 0 hr 19 min 58 sec) 
Heartbeat CPU 0 instructions: 80000003 cycles: 43621117 heartbeat IPC: 1.13096 cumulative IPC: 1.15161 (Simulation time: 0 hr 22 min 14 sec) 
Heartbeat CPU 0 instructions: 90000001 cycles: 52136738 heartbeat IPC: 1.17431 cumulative IPC: 1.1572 (Simulation time: 0 hr 24 min 23 sec) 
Heartbeat CPU 0 instructions: 100000003 cycles: 60977407 heartbeat IPC: 1.13114 cumulative IPC: 1.1519 (Simulation time: 0 hr 26 min 40 sec) 
Finished CPU 0 instructions: 50000002 cycles: 43406722 cumulative IPC: 1.1519 (Simulation time: 0 hr 26 min 40 sec) 

ChampSim completed all CPUs

Region of Interest Statistics

CPU 0 cumulative IPC: 1.1519 instructions: 50000002 cycles: 43406722
L1D TOTAL     ACCESS:   17992649  HIT:   17613100  MISS:     379549
L1D LOAD      ACCESS:    7214569  HIT:    7080594  MISS:     133975
L1D RFO       ACCESS:    3701903  HIT:    3597350  MISS:     104553
L1D PREFETCH  ACCESS:    7076177  HIT:    6935156  MISS:     141021
L1D WRITEBACK ACCESS:          0  HIT:          0  MISS:          0
L1D PREFETCH  REQUESTED:    7220099  ISSUED:    7137382  USEFUL:      46308  USELESS:      94718
L1D AVERAGE MISS LATENCY: 34.1548 cycles
L1I TOTAL     ACCESS:   51052330  HIT:   49375252  MISS:    1677078
L1I LOAD      ACCESS:    8955639  HIT:    8875702  MISS:      79937
L1I RFO       ACCESS:          0  HIT:          0  MISS:          0
L1I PREFETCH  ACCESS:   42096691  HIT:   40499550  MISS:    1597141
L1I WRITEBACK ACCESS:          0  HIT:          0  MISS:          0
L1I PREFETCH  REQUESTED:   58962936  ISSUED:   58962936  USEFUL:     694988  USELESS:     902145
L1I AVERAGE MISS LATENCY: 15.1488 cycles
L2C TOTAL     ACCESS:    3254547  HIT:    3122620  MISS:     131927
L2C LOAD      ACCESS:     177794  HIT:     142667  MISS:      35127
L2C RFO       ACCESS:     104187  HIT:      69706  MISS:      34481
L2C PREFETCH  ACCESS:    2833266  HIT:    2771060  MISS:      62206
L2C WRITEBACK ACCESS:     139300  HIT:     139187  MISS:        113
L2C PREFETCH  REQUESTED:    2706037  ISSUED:    2705317  USEFUL:       4849  USELESS:      57707
L2C AVERAGE MISS LATENCY: 64.7097 cycles
LLC TOTAL     ACCESS:     295578  HIT:     254081  MISS:      41497
LLC LOAD      ACCESS:      35126  HIT:      26945  MISS:       8181
LLC RFO       ACCESS:      34480  HIT:      27086  MISS:       7394
LLC PREFETCH  ACCESS:     180580  HIT:     154933  MISS:      25647
LLC WRITEBACK ACCESS:      45392  HIT:      45117  MISS:        275
LLC PREFETCH  REQUESTED:          0  ISSUED:          0  USEFUL:       1432  USELESS:      22194
LLC AVERAGE MISS LATENCY: 178.811 cycles
Major fault: 0 Minor fault: 4158
CPU 0 L1I EPI prefetcher final stats
CPU 0 L1D next line prefetcher final stats

DRAM Statistics
 CHANNEL 0
 RQ ROW_BUFFER_HIT:       5124  ROW_BUFFER_MISS:      36097
 DBUS_CONGESTED:      26946
 WQ ROW_BUFFER_HIT:       1549  ROW_BUFFER_MISS:      16146  FULL:          0

 AVG_CONGESTED_CYCLE: 5

CPU 0 Branch Prediction Accuracy: 94.7729% MPKI: 9.72684 Average ROB Occupancy at Mispredict: 54.1424

Branch types
NOT_BRANCH: 40695383 81.3908%
BRANCH_DIRECT_JUMP: 422107 0.844214%
BRANCH_INDIRECT: 65 0.00013%
BRANCH_CONDITIONAL: 8105005 16.21%
BRANCH_DIRECT_CALL: 374913 0.749826%
BRANCH_INDIRECT_CALL: 13657 0.027314%
BRANCH_RETURN: 388556 0.777112%
BRANCH_OTHER: 0 0%

