Initialize SIGNATURE TABLE
ST_SET: 1
ST_WAY: 256
ST_TAG_BIT: 16
ST_TAG_MASK: ffff

Initialize PATTERN TABLE
PT_SET: 512
PT_WAY: 4
SIG_DELTA_BIT: 7
C_SIG_BIT: 4
C_DELTA_BIT: 4

Initialize PREFETCH FILTER
FILTER_SET: 1024

*** ChampSim Multicore Out-of-Order Simulator ***

Warmup Instructions: 50000000
Simulation Instructions: 50000000
Number of CPUs: 1
LLC sets: 2048
LLC ways: 16
Off-chip DRAM Size: 4096 MB Channels: 1 Width: 64-bit Data Rate: 3200 MT/s

CPU 0 runs /home/ChampSim-master//dpc3_traces/spec_gobmk_001.champsimtrace.xz
L1I D-JOLT instruction prefetcher has been constructed!
CPU 0 L1D next line prefetcher
Heartbeat CPU 0 instructions: 10000003 cycles: 3506839 heartbeat IPC: 2.85157 cumulative IPC: 2.85157 (Simulation time: 0 hr 2 min 26 sec) 
Heartbeat CPU 0 instructions: 20000002 cycles: 6986885 heartbeat IPC: 2.87352 cumulative IPC: 2.86251 (Simulation time: 0 hr 4 min 45 sec) 
Heartbeat CPU 0 instructions: 30000002 cycles: 10505604 heartbeat IPC: 2.84194 cumulative IPC: 2.85562 (Simulation time: 0 hr 7 min 1 sec) 
Heartbeat CPU 0 instructions: 40000001 cycles: 14024583 heartbeat IPC: 2.84173 cumulative IPC: 2.85213 (Simulation time: 0 hr 9 min 17 sec) 
Heartbeat CPU 0 instructions: 50000001 cycles: 17564641 heartbeat IPC: 2.82481 cumulative IPC: 2.84663 (Simulation time: 0 hr 11 min 33 sec) 

Warmup complete CPU 0 instructions: 50000001 cycles: 17564641 (Simulation time: 0 hr 11 min 33 sec) 

Heartbeat CPU 0 instructions: 60000000 cycles: 26335117 heartbeat IPC: 1.14019 cumulative IPC: 1.14019 (Simulation time: 0 hr 13 min 30 sec) 
Heartbeat CPU 0 instructions: 70000002 cycles: 34747872 heartbeat IPC: 1.18867 cumulative IPC: 1.16393 (Simulation time: 0 hr 15 min 21 sec) 
Heartbeat CPU 0 instructions: 80000000 cycles: 43598469 heartbeat IPC: 1.12987 cumulative IPC: 1.15235 (Simulation time: 0 hr 17 min 8 sec) 
Heartbeat CPU 0 instructions: 90000001 cycles: 52100035 heartbeat IPC: 1.17625 cumulative IPC: 1.15823 (Simulation time: 0 hr 18 min 54 sec) 
Heartbeat CPU 0 instructions: 100000003 cycles: 60924063 heartbeat IPC: 1.13327 cumulative IPC: 1.15315 (Simulation time: 0 hr 20 min 40 sec) 
Finished CPU 0 instructions: 50000002 cycles: 43359422 cumulative IPC: 1.15315 (Simulation time: 0 hr 20 min 40 sec) 

ChampSim completed all CPUs

Region of Interest Statistics

CPU 0 cumulative IPC: 1.15315 instructions: 50000002 cycles: 43359422
L1D TOTAL     ACCESS:   17982603  HIT:   17603104  MISS:     379499
L1D LOAD      ACCESS:    7210258  HIT:    7074894  MISS:     135364
L1D RFO       ACCESS:    3701063  HIT:    3596503  MISS:     104560
L1D PREFETCH  ACCESS:    7071282  HIT:    6931707  MISS:     139575
L1D WRITEBACK ACCESS:          0  HIT:          0  MISS:          0
L1D PREFETCH  REQUESTED:    7215586  ISSUED:    7132912  USEFUL:      44905  USELESS:      94676
L1D AVERAGE MISS LATENCY: 33.7249 cycles
L1I TOTAL     ACCESS:   14103954  HIT:   12434497  MISS:    1669457
L1I LOAD      ACCESS:    8977466  HIT:    8923952  MISS:      53514
L1I RFO       ACCESS:          0  HIT:          0  MISS:          0
L1I PREFETCH  ACCESS:    5126488  HIT:    3510545  MISS:    1615943
L1I WRITEBACK ACCESS:          0  HIT:          0  MISS:          0
L1I PREFETCH  REQUESTED:    5297255  ISSUED:    5168355  USEFUL:     791550  USELESS:     824361
L1I AVERAGE MISS LATENCY: 15.2238 cycles
L2C TOTAL     ACCESS:    2986938  HIT:    2859881  MISS:     127057
L2C LOAD      ACCESS:     161581  HIT:     125565  MISS:      36016
L2C RFO       ACCESS:     104201  HIT:      69829  MISS:      34372
L2C PREFETCH  ACCESS:    2581864  HIT:    2525270  MISS:      56594
L2C WRITEBACK ACCESS:     139292  HIT:     139217  MISS:         75
L2C PREFETCH  REQUESTED:    1365713  ISSUED:    1365617  USEFUL:       5433  USELESS:      51498
L2C AVERAGE MISS LATENCY: 63.9392 cycles
LLC TOTAL     ACCESS:     268726  HIT:     234829  MISS:      33897
LLC LOAD      ACCESS:      36014  HIT:      27816  MISS:       8198
LLC RFO       ACCESS:      34372  HIT:      28183  MISS:       6189
LLC PREFETCH  ACCESS:     152924  HIT:     133629  MISS:      19295
LLC WRITEBACK ACCESS:      45416  HIT:      45201  MISS:        215
LLC PREFETCH  REQUESTED:          0  ISSUED:          0  USEFUL:       1242  USELESS:      16813
LLC AVERAGE MISS LATENCY: 179.886 cycles
Major fault: 0 Minor fault: 4162
CPU 0 L1D next line prefetcher final stats

DRAM Statistics
 CHANNEL 0
 RQ ROW_BUFFER_HIT:       4287  ROW_BUFFER_MISS:      29394
 DBUS_CONGESTED:      17925
 WQ ROW_BUFFER_HIT:       1413  ROW_BUFFER_MISS:      14112  FULL:          0

 AVG_CONGESTED_CYCLE: 4

CPU 0 Branch Prediction Accuracy: 94.7729% MPKI: 9.72684 Average ROB Occupancy at Mispredict: 54.0304

Branch types
NOT_BRANCH: 40695383 81.3908%
BRANCH_DIRECT_JUMP: 422107 0.844214%
BRANCH_INDIRECT: 65 0.00013%
BRANCH_CONDITIONAL: 8105005 16.21%
BRANCH_DIRECT_CALL: 374913 0.749826%
BRANCH_INDIRECT_CALL: 13657 0.027314%
BRANCH_RETURN: 388556 0.777112%
BRANCH_OTHER: 0 0%

