Initialize SIGNATURE TABLE
ST_SET: 1
ST_WAY: 256
ST_TAG_BIT: 16
ST_TAG_MASK: ffff

Initialize PATTERN TABLE
PT_SET: 512
PT_WAY: 4
SIG_DELTA_BIT: 7
C_SIG_BIT: 4
C_DELTA_BIT: 4

Initialize PREFETCH FILTER
FILTER_SET: 1024

*** ChampSim Multicore Out-of-Order Simulator ***

Warmup Instructions: 50000000
Simulation Instructions: 50000000
Number of CPUs: 1
LLC sets: 2048
LLC ways: 16
Off-chip DRAM Size: 4096 MB Channels: 1 Width: 64-bit Data Rate: 3200 MT/s

CPU 0 runs /home/ChampSim-master//dpc3_traces/spec_gcc_002.champsimtrace.xz
L1I D-JOLT instruction prefetcher has been constructed!
CPU 0 L1D next line prefetcher
Heartbeat CPU 0 instructions: 10000002 cycles: 3535037 heartbeat IPC: 2.82883 cumulative IPC: 2.82883 (Simulation time: 0 hr 2 min 21 sec) 
Heartbeat CPU 0 instructions: 20000000 cycles: 7107571 heartbeat IPC: 2.79913 cumulative IPC: 2.8139 (Simulation time: 0 hr 4 min 41 sec) 
Heartbeat CPU 0 instructions: 30000000 cycles: 10772078 heartbeat IPC: 2.72888 cumulative IPC: 2.78498 (Simulation time: 0 hr 7 min 18 sec) 
Heartbeat CPU 0 instructions: 40000000 cycles: 14319294 heartbeat IPC: 2.81911 cumulative IPC: 2.79343 (Simulation time: 0 hr 9 min 53 sec) 
Heartbeat CPU 0 instructions: 50000002 cycles: 17800905 heartbeat IPC: 2.87223 cumulative IPC: 2.80885 (Simulation time: 0 hr 12 min 31 sec) 

Warmup complete CPU 0 instructions: 50000002 cycles: 17800905 (Simulation time: 0 hr 12 min 31 sec) 

Heartbeat CPU 0 instructions: 60000001 cycles: 57790886 heartbeat IPC: 0.250063 cumulative IPC: 0.250063 (Simulation time: 0 hr 17 min 59 sec) 
Heartbeat CPU 0 instructions: 70000001 cycles: 89964993 heartbeat IPC: 0.310809 cumulative IPC: 0.277146 (Simulation time: 0 hr 22 min 3 sec) 
Heartbeat CPU 0 instructions: 80000002 cycles: 139299164 heartbeat IPC: 0.202699 cumulative IPC: 0.246917 (Simulation time: 0 hr 26 min 17 sec) 
Heartbeat CPU 0 instructions: 90000001 cycles: 184113567 heartbeat IPC: 0.223143 cumulative IPC: 0.240511 (Simulation time: 0 hr 27 min 29 sec) 
Heartbeat CPU 0 instructions: 100000000 cycles: 215878530 heartbeat IPC: 0.314812 cumulative IPC: 0.252426 (Simulation time: 0 hr 28 min 0 sec) 
Finished CPU 0 instructions: 50000002 cycles: 198077633 cumulative IPC: 0.252426 (Simulation time: 0 hr 28 min 0 sec) 

ChampSim completed all CPUs

Region of Interest Statistics

CPU 0 cumulative IPC: 0.252426 instructions: 50000002 cycles: 198077633
L1D TOTAL     ACCESS:   18165806  HIT:   12932355  MISS:    5233451
L1D LOAD      ACCESS:    6329319  HIT:    5270638  MISS:    1058681
L1D RFO       ACCESS:    7024039  HIT:    3423410  MISS:    3600629
L1D PREFETCH  ACCESS:    4812448  HIT:    4238307  MISS:     574141
L1D WRITEBACK ACCESS:          0  HIT:          0  MISS:          0
L1D PREFETCH  REQUESTED:    6349775  ISSUED:    6279071  USEFUL:     414501  USELESS:     159856
L1D AVERAGE MISS LATENCY: 336.034 cycles
L1I TOTAL     ACCESS:   17253674  HIT:   15993858  MISS:    1259816
L1I LOAD      ACCESS:   12110998  HIT:   12058805  MISS:      52193
L1I RFO       ACCESS:          0  HIT:          0  MISS:          0
L1I PREFETCH  ACCESS:    5142676  HIT:    3935053  MISS:    1207623
L1I WRITEBACK ACCESS:          0  HIT:          0  MISS:          0
L1I PREFETCH  REQUESTED:    5801157  ISSUED:    5540100  USEFUL:     691474  USELESS:     516185
L1I AVERAGE MISS LATENCY: 63.545 cycles
L2C TOTAL     ACCESS:   10712883  HIT:    5366361  MISS:    5346522
L2C LOAD      ACCESS:     280938  HIT:     119626  MISS:     161312
L2C RFO       ACCESS:    3599037  HIT:      12986  MISS:    3586051
L2C PREFETCH  ACCESS:    3107430  HIT:    1508426  MISS:    1599004
L2C WRITEBACK ACCESS:    3725478  HIT:    3725323  MISS:        155
L2C PREFETCH  REQUESTED:    3124357  ISSUED:    3124226  USEFUL:      26179  USELESS:    1573002
L2C AVERAGE MISS LATENCY: 347.073 cycles
LLC TOTAL     ACCESS:   10030004  HIT:    6117014  MISS:    3912990
LLC LOAD      ACCESS:     161133  HIT:      95134  MISS:      65999
LLC RFO       ACCESS:    3586052  HIT:     573443  MISS:    3012609
LLC PREFETCH  ACCESS:    2617393  HIT:    1783011  MISS:     834382
LLC WRITEBACK ACCESS:    3665426  HIT:    3665426  MISS:          0
LLC PREFETCH  REQUESTED:          0  ISSUED:          0  USEFUL:     144386  USELESS:     685685
LLC AVERAGE MISS LATENCY: 458.268 cycles
Major fault: 0 Minor fault: 4154
CPU 0 L1D next line prefetcher final stats

DRAM Statistics
 CHANNEL 0
 RQ ROW_BUFFER_HIT:    1039118  ROW_BUFFER_MISS:    2871773
 DBUS_CONGESTED:    5584535
 WQ ROW_BUFFER_HIT:     940904  ROW_BUFFER_MISS:    2247907  FULL:          0

 AVG_CONGESTED_CYCLE: 6

CPU 0 Branch Prediction Accuracy: 99.5987% MPKI: 0.82446 Average ROB Occupancy at Mispredict: 135.556

Branch types
NOT_BRANCH: 39726807 79.4536%
BRANCH_DIRECT_JUMP: 391439 0.782878%
BRANCH_INDIRECT: 62076 0.124152%
BRANCH_CONDITIONAL: 8421541 16.8431%
BRANCH_DIRECT_CALL: 672962 1.34592%
BRANCH_INDIRECT_CALL: 26115 0.05223%
BRANCH_RETURN: 699082 1.39816%
BRANCH_OTHER: 0 0%

