Initialize SIGNATURE TABLE
ST_SET: 1
ST_WAY: 256
ST_TAG_BIT: 16
ST_TAG_MASK: ffff

Initialize PATTERN TABLE
PT_SET: 512
PT_WAY: 4
SIG_DELTA_BIT: 7
C_SIG_BIT: 4
C_DELTA_BIT: 4

Initialize PREFETCH FILTER
FILTER_SET: 1024

*** ChampSim Multicore Out-of-Order Simulator ***

Warmup Instructions: 50000000
Simulation Instructions: 50000000
Number of CPUs: 1
LLC sets: 2048
LLC ways: 16
Off-chip DRAM Size: 4096 MB Channels: 1 Width: 64-bit Data Rate: 3200 MT/s

CPU 0 runs /home/ChampSim-master//dpc3_traces/spec_perlbench_001.champsimtrace.xz
CPU 0 EPI prefetcher
CPU 0 L1D next line prefetcher
Heartbeat CPU 0 instructions: 10000000 cycles: 3275902 heartbeat IPC: 3.05259 cumulative IPC: 3.05259 (Simulation time: 0 hr 2 min 35 sec) 
Heartbeat CPU 0 instructions: 20000000 cycles: 6540521 heartbeat IPC: 3.06314 cumulative IPC: 3.05786 (Simulation time: 0 hr 5 min 32 sec) 
Heartbeat CPU 0 instructions: 30000002 cycles: 9857192 heartbeat IPC: 3.01507 cumulative IPC: 3.04346 (Simulation time: 0 hr 8 min 33 sec) 
Heartbeat CPU 0 instructions: 40000002 cycles: 13112752 heartbeat IPC: 3.07167 cumulative IPC: 3.05047 (Simulation time: 0 hr 11 min 23 sec) 
Heartbeat CPU 0 instructions: 50000001 cycles: 16386582 heartbeat IPC: 3.05453 cumulative IPC: 3.05128 (Simulation time: 0 hr 14 min 5 sec) 

Warmup complete CPU 0 instructions: 50000001 cycles: 16386582 (Simulation time: 0 hr 14 min 5 sec) 

Heartbeat CPU 0 instructions: 60000001 cycles: 24766805 heartbeat IPC: 1.19329 cumulative IPC: 1.19329 (Simulation time: 0 hr 16 min 38 sec) 
Heartbeat CPU 0 instructions: 70000000 cycles: 33034979 heartbeat IPC: 1.20946 cumulative IPC: 1.20132 (Simulation time: 0 hr 19 min 9 sec) 
Heartbeat CPU 0 instructions: 80000000 cycles: 41491561 heartbeat IPC: 1.18251 cumulative IPC: 1.19498 (Simulation time: 0 hr 21 min 32 sec) 
Heartbeat CPU 0 instructions: 90000000 cycles: 47216272 heartbeat IPC: 1.74681 cumulative IPC: 1.29745 (Simulation time: 0 hr 23 min 29 sec) 
Heartbeat CPU 0 instructions: 100000002 cycles: 53099727 heartbeat IPC: 1.69968 cumulative IPC: 1.36191 (Simulation time: 0 hr 25 min 10 sec) 
Finished CPU 0 instructions: 50000001 cycles: 36713145 cumulative IPC: 1.36191 (Simulation time: 0 hr 25 min 10 sec) 

ChampSim completed all CPUs

Region of Interest Statistics

CPU 0 cumulative IPC: 1.36191 instructions: 50000001 cycles: 36713145
L1D TOTAL     ACCESS:   20749892  HIT:   20334780  MISS:     415112
L1D LOAD      ACCESS:    7203751  HIT:    6990106  MISS:     213645
L1D RFO       ACCESS:    6543427  HIT:    6524925  MISS:      18502
L1D PREFETCH  ACCESS:    7002714  HIT:    6819749  MISS:     182965
L1D WRITEBACK ACCESS:          0  HIT:          0  MISS:          0
L1D PREFETCH  REQUESTED:    7219657  ISSUED:    7103596  USEFUL:      55279  USELESS:     127681
L1D AVERAGE MISS LATENCY: 58.4303 cycles
L1I TOTAL     ACCESS:   29603148  HIT:   29095474  MISS:     507674
L1I LOAD      ACCESS:    9125928  HIT:    8994739  MISS:     131189
L1I RFO       ACCESS:          0  HIT:          0  MISS:          0
L1I PREFETCH  ACCESS:   20477220  HIT:   20100735  MISS:     376485
L1I WRITEBACK ACCESS:          0  HIT:          0  MISS:          0
L1I PREFETCH  REQUESTED:   22487356  ISSUED:   22487356  USEFUL:     262702  USELESS:     113772
L1I AVERAGE MISS LATENCY: 17.1145 cycles
L2C TOTAL     ACCESS:    1312602  HIT:    1146622  MISS:     165980
L2C LOAD      ACCESS:     320932  HIT:     239665  MISS:      81267
L2C RFO       ACCESS:      18285  HIT:      12910  MISS:       5375
L2C PREFETCH  ACCESS:     894440  HIT:     815452  MISS:      78988
L2C WRITEBACK ACCESS:      78945  HIT:      78595  MISS:        350
L2C PREFETCH  REQUESTED:     708174  ISSUED:     708171  USEFUL:       5860  USELESS:      73119
L2C AVERAGE MISS LATENCY: 120.543 cycles
LLC TOTAL     ACCESS:     364484  HIT:     224725  MISS:     139759
LLC LOAD      ACCESS:      81261  HIT:      31846  MISS:      49415
LLC RFO       ACCESS:       5374  HIT:       2300  MISS:       3074
LLC PREFETCH  ACCESS:     252706  HIT:     165902  MISS:      86804
LLC WRITEBACK ACCESS:      25143  HIT:      24677  MISS:        466
LLC PREFETCH  REQUESTED:          0  ISSUED:          0  USEFUL:      13906  USELESS:      73192
LLC AVERAGE MISS LATENCY: 159.329 cycles
Major fault: 0 Minor fault: 6364
CPU 0 L1I EPI prefetcher final stats
CPU 0 L1D next line prefetcher final stats

DRAM Statistics
 CHANNEL 0
 RQ ROW_BUFFER_HIT:      32164  ROW_BUFFER_MISS:     107128
 DBUS_CONGESTED:      56181
 WQ ROW_BUFFER_HIT:       4288  ROW_BUFFER_MISS:      12904  FULL:          0

 AVG_CONGESTED_CYCLE: 4

CPU 0 Branch Prediction Accuracy: 98.7418% MPKI: 2.47758 Average ROB Occupancy at Mispredict: 75.8165

Branch types
NOT_BRANCH: 40154100 80.3082%
BRANCH_DIRECT_JUMP: 817094 1.63419%
BRANCH_INDIRECT: 303787 0.607574%
BRANCH_CONDITIONAL: 7492103 14.9842%
BRANCH_DIRECT_CALL: 471777 0.943554%
BRANCH_INDIRECT_CALL: 144546 0.289092%
BRANCH_RETURN: 616324 1.23265%
BRANCH_OTHER: 0 0%

