Initialize SIGNATURE TABLE
ST_SET: 1
ST_WAY: 256
ST_TAG_BIT: 16
ST_TAG_MASK: ffff

Initialize PATTERN TABLE
PT_SET: 512
PT_WAY: 4
SIG_DELTA_BIT: 7
C_SIG_BIT: 4
C_DELTA_BIT: 4

Initialize PREFETCH FILTER
FILTER_SET: 1024

*** ChampSim Multicore Out-of-Order Simulator ***

Warmup Instructions: 50000000
Simulation Instructions: 50000000
Number of CPUs: 1
LLC sets: 2048
LLC ways: 16
Off-chip DRAM Size: 4096 MB Channels: 1 Width: 64-bit Data Rate: 3200 MT/s

CPU 0 runs /home/ChampSim-master//dpc3_traces/spec_gobmk_001.champsimtrace.xz
CPU 0 EPI prefetcher
CPU 0 L1D next line prefetcher
Heartbeat CPU 0 instructions: 10000003 cycles: 3506878 heartbeat IPC: 2.85154 cumulative IPC: 2.85154 (Simulation time: 0 hr 2 min 35 sec) 
Heartbeat CPU 0 instructions: 20000002 cycles: 6987258 heartbeat IPC: 2.87325 cumulative IPC: 2.86235 (Simulation time: 0 hr 5 min 14 sec) 
Heartbeat CPU 0 instructions: 30000002 cycles: 10506329 heartbeat IPC: 2.84166 cumulative IPC: 2.85542 (Simulation time: 0 hr 7 min 52 sec) 
Heartbeat CPU 0 instructions: 40000001 cycles: 14025540 heartbeat IPC: 2.84155 cumulative IPC: 2.85194 (Simulation time: 0 hr 10 min 28 sec) 
Heartbeat CPU 0 instructions: 50000001 cycles: 17565620 heartbeat IPC: 2.8248 cumulative IPC: 2.84647 (Simulation time: 0 hr 13 min 7 sec) 

Warmup complete CPU 0 instructions: 50000001 cycles: 17565620 (Simulation time: 0 hr 13 min 7 sec) 

Heartbeat CPU 0 instructions: 60000000 cycles: 26392723 heartbeat IPC: 1.13287 cumulative IPC: 1.13287 (Simulation time: 0 hr 15 min 21 sec) 
Heartbeat CPU 0 instructions: 70000002 cycles: 34877076 heartbeat IPC: 1.17864 cumulative IPC: 1.1553 (Simulation time: 0 hr 17 min 28 sec) 
Heartbeat CPU 0 instructions: 80000003 cycles: 43761859 heartbeat IPC: 1.12552 cumulative IPC: 1.1452 (Simulation time: 0 hr 19 min 30 sec) 
Heartbeat CPU 0 instructions: 90000001 cycles: 52306525 heartbeat IPC: 1.17032 cumulative IPC: 1.15138 (Simulation time: 0 hr 21 min 28 sec) 
Heartbeat CPU 0 instructions: 100000003 cycles: 61177629 heartbeat IPC: 1.12726 cumulative IPC: 1.14647 (Simulation time: 0 hr 23 min 31 sec) 
Finished CPU 0 instructions: 50000002 cycles: 43612009 cumulative IPC: 1.14647 (Simulation time: 0 hr 23 min 31 sec) 

ChampSim completed all CPUs

Region of Interest Statistics

CPU 0 cumulative IPC: 1.14647 instructions: 50000002 cycles: 43612009
L1D TOTAL     ACCESS:   18012595  HIT:   17633041  MISS:     379554
L1D LOAD      ACCESS:    7223463  HIT:    7087904  MISS:     135559
L1D RFO       ACCESS:    3704717  HIT:    3600144  MISS:     104573
L1D PREFETCH  ACCESS:    7084415  HIT:    6944993  MISS:     139422
L1D WRITEBACK ACCESS:          0  HIT:          0  MISS:          0
L1D PREFETCH  REQUESTED:    7228786  ISSUED:    7146063  USEFUL:      44707  USELESS:      94720
L1D AVERAGE MISS LATENCY: 33.6877 cycles
L1I TOTAL     ACCESS:   35794479  HIT:   34885745  MISS:     908734
L1I LOAD      ACCESS:    8923120  HIT:    8810555  MISS:     112565
L1I RFO       ACCESS:          0  HIT:          0  MISS:          0
L1I PREFETCH  ACCESS:   26871359  HIT:   26075190  MISS:     796169
L1I WRITEBACK ACCESS:          0  HIT:          0  MISS:          0
L1I PREFETCH  REQUESTED:   33557023  ISSUED:   33557023  USEFUL:     458377  USELESS:     337807
L1I AVERAGE MISS LATENCY: 14.9644 cycles
L2C TOTAL     ACCESS:    2001478  HIT:    1876150  MISS:     125328
L2C LOAD      ACCESS:     202150  HIT:     167331  MISS:      34819
L2C RFO       ACCESS:     104208  HIT:      70107  MISS:      34101
L2C PREFETCH  ACCESS:    1555827  HIT:    1499484  MISS:      56343
L2C WRITEBACK ACCESS:     139293  HIT:     139228  MISS:         65
L2C PREFETCH  REQUESTED:    1138479  ISSUED:    1138391  USEFUL:       4565  USELESS:      52074
L2C AVERAGE MISS LATENCY: 65.7265 cycles
LLC TOTAL     ACCESS:     270706  HIT:     233779  MISS:      36927
LLC LOAD      ACCESS:      34817  HIT:      26664  MISS:       8153
LLC RFO       ACCESS:      34101  HIT:      27243  MISS:       6858
LLC PREFETCH  ACCESS:     156938  HIT:     135306  MISS:      21632
LLC WRITEBACK ACCESS:      44850  HIT:      44566  MISS:        284
LLC PREFETCH  REQUESTED:          0  ISSUED:          0  USEFUL:       1336  USELESS:      18602
LLC AVERAGE MISS LATENCY: 178.517 cycles
Major fault: 0 Minor fault: 4156
CPU 0 L1I EPI prefetcher final stats
CPU 0 L1D next line prefetcher final stats

DRAM Statistics
 CHANNEL 0
 RQ ROW_BUFFER_HIT:       4661  ROW_BUFFER_MISS:      31981
 DBUS_CONGESTED:      21034
 WQ ROW_BUFFER_HIT:       1466  ROW_BUFFER_MISS:      14972  FULL:          0

 AVG_CONGESTED_CYCLE: 4

CPU 0 Branch Prediction Accuracy: 94.7729% MPKI: 9.72684 Average ROB Occupancy at Mispredict: 53.6588

Branch types
NOT_BRANCH: 40695383 81.3908%
BRANCH_DIRECT_JUMP: 422107 0.844214%
BRANCH_INDIRECT: 65 0.00013%
BRANCH_CONDITIONAL: 8105005 16.21%
BRANCH_DIRECT_CALL: 374913 0.749826%
BRANCH_INDIRECT_CALL: 13657 0.027314%
BRANCH_RETURN: 388556 0.777112%
BRANCH_OTHER: 0 0%

