Initialize SIGNATURE TABLE
ST_SET: 1
ST_WAY: 256
ST_TAG_BIT: 16
ST_TAG_MASK: ffff

Initialize PATTERN TABLE
PT_SET: 512
PT_WAY: 4
SIG_DELTA_BIT: 7
C_SIG_BIT: 4
C_DELTA_BIT: 4

Initialize PREFETCH FILTER
FILTER_SET: 1024

*** ChampSim Multicore Out-of-Order Simulator ***

Warmup Instructions: 50000000
Simulation Instructions: 50000000
Number of CPUs: 1
LLC sets: 2048
LLC ways: 16
Off-chip DRAM Size: 4096 MB Channels: 1 Width: 64-bit Data Rate: 3200 MT/s

CPU 0 runs /home/ChampSim-master//dpc3_traces/spec_perlbench_001.champsimtrace.xz
CPU 0 EPI prefetcher
CPU 0 L1D next line prefetcher
Heartbeat CPU 0 instructions: 10000000 cycles: 3276329 heartbeat IPC: 3.0522 cumulative IPC: 3.0522 (Simulation time: 0 hr 3 min 32 sec) 
Heartbeat CPU 0 instructions: 20000000 cycles: 6541909 heartbeat IPC: 3.06224 cumulative IPC: 3.05721 (Simulation time: 0 hr 7 min 17 sec) 
Heartbeat CPU 0 instructions: 30000002 cycles: 9859931 heartbeat IPC: 3.01384 cumulative IPC: 3.04262 (Simulation time: 0 hr 10 min 58 sec) 
Heartbeat CPU 0 instructions: 40000002 cycles: 13115873 heartbeat IPC: 3.07131 cumulative IPC: 3.04974 (Simulation time: 0 hr 14 min 14 sec) 
Heartbeat CPU 0 instructions: 50000001 cycles: 16389880 heartbeat IPC: 3.05436 cumulative IPC: 3.05066 (Simulation time: 0 hr 17 min 39 sec) 

Warmup complete CPU 0 instructions: 50000001 cycles: 16389880 (Simulation time: 0 hr 17 min 39 sec) 

Heartbeat CPU 0 instructions: 60000001 cycles: 24567253 heartbeat IPC: 1.22289 cumulative IPC: 1.22289 (Simulation time: 0 hr 21 min 8 sec) 
Heartbeat CPU 0 instructions: 70000003 cycles: 32597300 heartbeat IPC: 1.24532 cumulative IPC: 1.234 (Simulation time: 0 hr 24 min 42 sec) 
Heartbeat CPU 0 instructions: 80000000 cycles: 40935765 heartbeat IPC: 1.19926 cumulative IPC: 1.2222 (Simulation time: 0 hr 27 min 35 sec) 
Heartbeat CPU 0 instructions: 90000000 cycles: 46656853 heartbeat IPC: 1.74792 cumulative IPC: 1.32157 (Simulation time: 0 hr 29 min 26 sec) 
Heartbeat CPU 0 instructions: 100000002 cycles: 52522244 heartbeat IPC: 1.70492 cumulative IPC: 1.3838 (Simulation time: 0 hr 30 min 39 sec) 
Finished CPU 0 instructions: 50000001 cycles: 36132364 cumulative IPC: 1.3838 (Simulation time: 0 hr 30 min 39 sec) 

ChampSim completed all CPUs

Region of Interest Statistics

CPU 0 cumulative IPC: 1.3838 instructions: 50000001 cycles: 36132364
L1D TOTAL     ACCESS:   20667034  HIT:   20251941  MISS:     415093
L1D LOAD      ACCESS:    7163425  HIT:    6949661  MISS:     213764
L1D RFO       ACCESS:    6541938  HIT:    6523446  MISS:      18492
L1D PREFETCH  ACCESS:    6961671  HIT:    6778834  MISS:     182837
L1D WRITEBACK ACCESS:          0  HIT:          0  MISS:          0
L1D PREFETCH  REQUESTED:    7178943  ISSUED:    7062422  USEFUL:      55146  USELESS:     127686
L1D AVERAGE MISS LATENCY: 57.904 cycles
L1I TOTAL     ACCESS:   42978112  HIT:   42178321  MISS:     799791
L1I LOAD      ACCESS:    9150303  HIT:    9109244  MISS:      41059
L1I RFO       ACCESS:          0  HIT:          0  MISS:          0
L1I PREFETCH  ACCESS:   33827809  HIT:   33069077  MISS:     758732
L1I WRITEBACK ACCESS:          0  HIT:          0  MISS:          0
L1I PREFETCH  REQUESTED:   46989961  ISSUED:   46989961  USEFUL:     431862  USELESS:     326913
L1I AVERAGE MISS LATENCY: 16.9986 cycles
L2C TOTAL     ACCESS:    1724377  HIT:    1554387  MISS:     169990
L2C LOAD      ACCESS:     235220  HIT:     156699  MISS:      78521
L2C RFO       ACCESS:      18260  HIT:      12830  MISS:       5430
L2C PREFETCH  ACCESS:    1391947  HIT:    1306302  MISS:      85645
L2C WRITEBACK ACCESS:      78950  HIT:      78556  MISS:        394
L2C PREFETCH  REQUESTED:    1247592  ISSUED:    1247531  USEFUL:       6276  USELESS:      79266
L2C AVERAGE MISS LATENCY: 118.075 cycles
LLC TOTAL     ACCESS:     416882  HIT:     273529  MISS:     143353
LLC LOAD      ACCESS:      78512  HIT:      31029  MISS:      47483
LLC RFO       ACCESS:       5430  HIT:       2426  MISS:       3004
LLC PREFETCH  ACCESS:     307379  HIT:     214999  MISS:      92380
LLC WRITEBACK ACCESS:      25561  HIT:      25075  MISS:        486
LLC PREFETCH  REQUESTED:          0  ISSUED:          0  USEFUL:      14601  USELESS:      77683
LLC AVERAGE MISS LATENCY: 160.485 cycles
Major fault: 0 Minor fault: 6366
CPU 0 L1I EPI prefetcher final stats
CPU 0 L1D next line prefetcher final stats

DRAM Statistics
 CHANNEL 0
 RQ ROW_BUFFER_HIT:      32920  ROW_BUFFER_MISS:     109945
 DBUS_CONGESTED:      59906
 WQ ROW_BUFFER_HIT:       4038  ROW_BUFFER_MISS:      13298  FULL:          0

 AVG_CONGESTED_CYCLE: 4

CPU 0 Branch Prediction Accuracy: 98.7418% MPKI: 2.47758 Average ROB Occupancy at Mispredict: 81.0238

Branch types
NOT_BRANCH: 40154100 80.3082%
BRANCH_DIRECT_JUMP: 817094 1.63419%
BRANCH_INDIRECT: 303787 0.607574%
BRANCH_CONDITIONAL: 7492103 14.9842%
BRANCH_DIRECT_CALL: 471777 0.943554%
BRANCH_INDIRECT_CALL: 144546 0.289092%
BRANCH_RETURN: 616324 1.23265%
BRANCH_OTHER: 0 0%

