Initialize SIGNATURE TABLE
ST_SET: 1
ST_WAY: 256
ST_TAG_BIT: 16
ST_TAG_MASK: ffff

Initialize PATTERN TABLE
PT_SET: 512
PT_WAY: 4
SIG_DELTA_BIT: 7
C_SIG_BIT: 4
C_DELTA_BIT: 4

Initialize PREFETCH FILTER
FILTER_SET: 1024

*** ChampSim Multicore Out-of-Order Simulator ***

Warmup Instructions: 50000000
Simulation Instructions: 50000000
Number of CPUs: 1
LLC sets: 2048
LLC ways: 16
Off-chip DRAM Size: 4096 MB Channels: 1 Width: 64-bit Data Rate: 3200 MT/s

CPU 0 runs /home/ChampSim-master//dpc3_traces/spec_gobmk_001.champsimtrace.xz
L1I D-JOLT instruction prefetcher has been constructed!
CPU 0 L1D next line prefetcher
Heartbeat CPU 0 instructions: 10000003 cycles: 3506777 heartbeat IPC: 2.85162 cumulative IPC: 2.85162 (Simulation time: 0 hr 2 min 34 sec) 
Heartbeat CPU 0 instructions: 20000002 cycles: 6986840 heartbeat IPC: 2.87351 cumulative IPC: 2.86252 (Simulation time: 0 hr 5 min 4 sec) 
Heartbeat CPU 0 instructions: 30000002 cycles: 10505638 heartbeat IPC: 2.84188 cumulative IPC: 2.85561 (Simulation time: 0 hr 7 min 40 sec) 
Heartbeat CPU 0 instructions: 40000001 cycles: 14024567 heartbeat IPC: 2.84177 cumulative IPC: 2.85214 (Simulation time: 0 hr 10 min 22 sec) 
Heartbeat CPU 0 instructions: 50000001 cycles: 17564534 heartbeat IPC: 2.82489 cumulative IPC: 2.84665 (Simulation time: 0 hr 13 min 4 sec) 

Warmup complete CPU 0 instructions: 50000001 cycles: 17564534 (Simulation time: 0 hr 13 min 4 sec) 

Heartbeat CPU 0 instructions: 60000000 cycles: 26345548 heartbeat IPC: 1.13882 cumulative IPC: 1.13882 (Simulation time: 0 hr 15 min 2 sec) 
Heartbeat CPU 0 instructions: 70000002 cycles: 34763774 heartbeat IPC: 1.1879 cumulative IPC: 1.16284 (Simulation time: 0 hr 16 min 49 sec) 
Heartbeat CPU 0 instructions: 80000003 cycles: 43616952 heartbeat IPC: 1.12954 cumulative IPC: 1.15152 (Simulation time: 0 hr 18 min 35 sec) 
Heartbeat CPU 0 instructions: 90000001 cycles: 52127981 heartbeat IPC: 1.17495 cumulative IPC: 1.15729 (Simulation time: 0 hr 20 min 22 sec) 
Heartbeat CPU 0 instructions: 100000003 cycles: 60962041 heartbeat IPC: 1.13198 cumulative IPC: 1.15214 (Simulation time: 0 hr 22 min 28 sec) 
Finished CPU 0 instructions: 50000002 cycles: 43397507 cumulative IPC: 1.15214 (Simulation time: 0 hr 22 min 28 sec) 

ChampSim completed all CPUs

Region of Interest Statistics

CPU 0 cumulative IPC: 1.15214 instructions: 50000002 cycles: 43397507
L1D TOTAL     ACCESS:   17986357  HIT:   17606858  MISS:     379499
L1D LOAD      ACCESS:    7212095  HIT:    7076736  MISS:     135359
L1D RFO       ACCESS:    3701273  HIT:    3596699  MISS:     104574
L1D PREFETCH  ACCESS:    7072989  HIT:    6933423  MISS:     139566
L1D WRITEBACK ACCESS:          0  HIT:          0  MISS:          0
L1D PREFETCH  REQUESTED:    7217497  ISSUED:    7134782  USEFUL:      44885  USELESS:      94687
L1D AVERAGE MISS LATENCY: 33.575 cycles
L1I TOTAL     ACCESS:   14202237  HIT:   12427294  MISS:    1774943
L1I LOAD      ACCESS:    8983828  HIT:    8925281  MISS:      58547
L1I RFO       ACCESS:          0  HIT:          0  MISS:          0
L1I PREFETCH  ACCESS:    5218409  HIT:    3502013  MISS:    1716396
L1I WRITEBACK ACCESS:          0  HIT:          0  MISS:          0
L1I PREFETCH  REQUESTED:    5476725  ISSUED:    5253425  USEFUL:     816678  USELESS:     899686
L1I AVERAGE MISS LATENCY: 15.2114 cycles
L2C TOTAL     ACCESS:    3156479  HIT:    3029168  MISS:     127311
L2C LOAD      ACCESS:     166734  HIT:     130812  MISS:      35922
L2C RFO       ACCESS:     104214  HIT:      69776  MISS:      34438
L2C PREFETCH  ACCESS:    2746240  HIT:    2689385  MISS:      56855
L2C WRITEBACK ACCESS:     139291  HIT:     139195  MISS:         96
L2C PREFETCH  REQUESTED:    1491122  ISSUED:    1491001  USEFUL:       5404  USELESS:      51744
L2C AVERAGE MISS LATENCY: 63.4895 cycles
LLC TOTAL     ACCESS:     277512  HIT:     243197  MISS:      34315
LLC LOAD      ACCESS:      35919  HIT:      27759  MISS:       8160
LLC RFO       ACCESS:      34438  HIT:      28215  MISS:       6223
LLC PREFETCH  ACCESS:     161662  HIT:     141942  MISS:      19720
LLC WRITEBACK ACCESS:      45493  HIT:      45281  MISS:        212
LLC PREFETCH  REQUESTED:          0  ISSUED:          0  USEFUL:       1288  USELESS:      17177
LLC AVERAGE MISS LATENCY: 178.784 cycles
Major fault: 0 Minor fault: 4162
CPU 0 L1D next line prefetcher final stats

DRAM Statistics
 CHANNEL 0
 RQ ROW_BUFFER_HIT:       4307  ROW_BUFFER_MISS:      29794
 DBUS_CONGESTED:      18252
 WQ ROW_BUFFER_HIT:       1426  ROW_BUFFER_MISS:      14205  FULL:          0

 AVG_CONGESTED_CYCLE: 4

CPU 0 Branch Prediction Accuracy: 94.7729% MPKI: 9.72684 Average ROB Occupancy at Mispredict: 53.8714

Branch types
NOT_BRANCH: 40695383 81.3908%
BRANCH_DIRECT_JUMP: 422107 0.844214%
BRANCH_INDIRECT: 65 0.00013%
BRANCH_CONDITIONAL: 8105005 16.21%
BRANCH_DIRECT_CALL: 374913 0.749826%
BRANCH_INDIRECT_CALL: 13657 0.027314%
BRANCH_RETURN: 388556 0.777112%
BRANCH_OTHER: 0 0%

