Initialize SIGNATURE TABLE
ST_SET: 1
ST_WAY: 256
ST_TAG_BIT: 16
ST_TAG_MASK: ffff

Initialize PATTERN TABLE
PT_SET: 512
PT_WAY: 4
SIG_DELTA_BIT: 7
C_SIG_BIT: 4
C_DELTA_BIT: 4

Initialize PREFETCH FILTER
FILTER_SET: 1024

*** ChampSim Multicore Out-of-Order Simulator ***

Warmup Instructions: 50000000
Simulation Instructions: 50000000
Number of CPUs: 1
LLC sets: 2048
LLC ways: 16
Off-chip DRAM Size: 4096 MB Channels: 1 Width: 64-bit Data Rate: 3200 MT/s

CPU 0 runs /home/ChampSim-master//dpc3_traces/spec_gobmk_002.champsimtrace.xz
L1I D-JOLT instruction prefetcher has been constructed!
CPU 0 L1D next line prefetcher
Heartbeat CPU 0 instructions: 10000001 cycles: 3287425 heartbeat IPC: 3.04189 cumulative IPC: 3.04189 (Simulation time: 0 hr 2 min 26 sec) 
Heartbeat CPU 0 instructions: 20000000 cycles: 6619000 heartbeat IPC: 3.00158 cumulative IPC: 3.0216 (Simulation time: 0 hr 4 min 41 sec) 
Heartbeat CPU 0 instructions: 30000000 cycles: 9956901 heartbeat IPC: 2.99589 cumulative IPC: 3.01299 (Simulation time: 0 hr 6 min 59 sec) 
Heartbeat CPU 0 instructions: 40000000 cycles: 13266338 heartbeat IPC: 3.02166 cumulative IPC: 3.01515 (Simulation time: 0 hr 9 min 20 sec) 
Heartbeat CPU 0 instructions: 50000003 cycles: 16529840 heartbeat IPC: 3.06419 cumulative IPC: 3.02483 (Simulation time: 0 hr 11 min 41 sec) 

Warmup complete CPU 0 instructions: 50000003 cycles: 16529840 (Simulation time: 0 hr 11 min 41 sec) 

Heartbeat CPU 0 instructions: 60000003 cycles: 23939881 heartbeat IPC: 1.34952 cumulative IPC: 1.34952 (Simulation time: 0 hr 13 min 40 sec) 
Heartbeat CPU 0 instructions: 70000001 cycles: 31297138 heartbeat IPC: 1.3592 cumulative IPC: 1.35434 (Simulation time: 0 hr 15 min 29 sec) 
Heartbeat CPU 0 instructions: 80000000 cycles: 38514344 heartbeat IPC: 1.38558 cumulative IPC: 1.3646 (Simulation time: 0 hr 17 min 21 sec) 
Heartbeat CPU 0 instructions: 90000001 cycles: 46049580 heartbeat IPC: 1.3271 cumulative IPC: 1.35503 (Simulation time: 0 hr 19 min 5 sec) 
Heartbeat CPU 0 instructions: 100000003 cycles: 53831908 heartbeat IPC: 1.28496 cumulative IPC: 1.34041 (Simulation time: 0 hr 20 min 47 sec) 
Finished CPU 0 instructions: 50000000 cycles: 37302068 cumulative IPC: 1.34041 (Simulation time: 0 hr 20 min 47 sec) 

ChampSim completed all CPUs

Region of Interest Statistics

CPU 0 cumulative IPC: 1.34041 instructions: 50000000 cycles: 37302068
L1D TOTAL     ACCESS:   17625418  HIT:   17502295  MISS:     123123
L1D LOAD      ACCESS:    6658248  HIT:    6623981  MISS:      34267
L1D RFO       ACCESS:    4388222  HIT:    4345542  MISS:      42680
L1D PREFETCH  ACCESS:    6578948  HIT:    6532772  MISS:      46176
L1D WRITEBACK ACCESS:          0  HIT:          0  MISS:          0
L1D PREFETCH  REQUESTED:    6660664  ISSUED:    6593330  USEFUL:      17118  USELESS:      29241
L1D AVERAGE MISS LATENCY: 50.8786 cycles
L1I TOTAL     ACCESS:   15904134  HIT:   13523030  MISS:    2381104
L1I LOAD      ACCESS:    8893835  HIT:    8816815  MISS:      77020
L1I RFO       ACCESS:          0  HIT:          0  MISS:          0
L1I PREFETCH  ACCESS:    7010299  HIT:    4706215  MISS:    2304084
L1I WRITEBACK ACCESS:          0  HIT:          0  MISS:          0
L1I PREFETCH  REQUESTED:    7429741  ISSUED:    7067859  USEFUL:    1123430  USELESS:    1180585
L1I AVERAGE MISS LATENCY: 14.5629 cycles
L2C TOTAL     ACCESS:    3624304  HIT:    3586665  MISS:      37639
L2C LOAD      ACCESS:     106618  HIT:      92758  MISS:      13860
L2C RFO       ACCESS:      42544  HIT:      39660  MISS:       2884
L2C PREFETCH  ACCESS:    3400934  HIT:    3380195  MISS:      20739
L2C WRITEBACK ACCESS:      74208  HIT:      74052  MISS:        156
L2C PREFETCH  REQUESTED:    1659072  ISSUED:    1659068  USEFUL:       2361  USELESS:      18810
L2C AVERAGE MISS LATENCY: 125.652 cycles
LLC TOTAL     ACCESS:     100899  HIT:      70102  MISS:      30797
LLC LOAD      ACCESS:      13860  HIT:       5145  MISS:       8715
LLC RFO       ACCESS:       2884  HIT:       1259  MISS:       1625
LLC PREFETCH  ACCESS:      66162  HIT:      46192  MISS:      19970
LLC WRITEBACK ACCESS:      17993  HIT:      17506  MISS:        487
LLC PREFETCH  REQUESTED:          0  ISSUED:          0  USEFUL:       2018  USELESS:      18072
LLC AVERAGE MISS LATENCY: 181.761 cycles
Major fault: 0 Minor fault: 2780
CPU 0 L1D next line prefetcher final stats

DRAM Statistics
 CHANNEL 0
 RQ ROW_BUFFER_HIT:       2588  ROW_BUFFER_MISS:      27722
 DBUS_CONGESTED:      13453
 WQ ROW_BUFFER_HIT:        761  ROW_BUFFER_MISS:      12449  FULL:          0

 AVG_CONGESTED_CYCLE: 4

CPU 0 Branch Prediction Accuracy: 93.9974% MPKI: 10.2447 Average ROB Occupancy at Mispredict: 40.0246

Branch types
NOT_BRANCH: 41466056 82.9321%
BRANCH_DIRECT_JUMP: 464313 0.928626%
BRANCH_INDIRECT: 32 6.4e-05%
BRANCH_CONDITIONAL: 7069452 14.1389%
BRANCH_DIRECT_CALL: 499587 0.999174%
BRANCH_INDIRECT_CALL: 342 0.000684%
BRANCH_RETURN: 499906 0.999812%
BRANCH_OTHER: 0 0%

