Initialize SIGNATURE TABLE
ST_SET: 1
ST_WAY: 256
ST_TAG_BIT: 16
ST_TAG_MASK: ffff

Initialize PATTERN TABLE
PT_SET: 512
PT_WAY: 4
SIG_DELTA_BIT: 7
C_SIG_BIT: 4
C_DELTA_BIT: 4

Initialize PREFETCH FILTER
FILTER_SET: 1024

*** ChampSim Multicore Out-of-Order Simulator ***

Warmup Instructions: 50000000
Simulation Instructions: 50000000
Number of CPUs: 1
LLC sets: 2048
LLC ways: 16
Off-chip DRAM Size: 4096 MB Channels: 1 Width: 64-bit Data Rate: 3200 MT/s

CPU 0 runs /home/ChampSim-master//dpc3_traces/spec_gobmk_002.champsimtrace.xz
CPU 0 EPI prefetcher
CPU 0 L1D next line prefetcher
Heartbeat CPU 0 instructions: 10000001 cycles: 3287570 heartbeat IPC: 3.04176 cumulative IPC: 3.04176 (Simulation time: 0 hr 3 min 7 sec) 
Heartbeat CPU 0 instructions: 20000000 cycles: 6619254 heartbeat IPC: 3.00148 cumulative IPC: 3.02149 (Simulation time: 0 hr 5 min 52 sec) 
Heartbeat CPU 0 instructions: 30000000 cycles: 9957246 heartbeat IPC: 2.99581 cumulative IPC: 3.01288 (Simulation time: 0 hr 8 min 51 sec) 
Heartbeat CPU 0 instructions: 40000000 cycles: 13266715 heartbeat IPC: 3.02163 cumulative IPC: 3.01506 (Simulation time: 0 hr 12 min 9 sec) 
Heartbeat CPU 0 instructions: 50000003 cycles: 16530281 heartbeat IPC: 3.06413 cumulative IPC: 3.02475 (Simulation time: 0 hr 15 min 28 sec) 

Warmup complete CPU 0 instructions: 50000003 cycles: 16530281 (Simulation time: 0 hr 15 min 28 sec) 

Heartbeat CPU 0 instructions: 60000003 cycles: 23957940 heartbeat IPC: 1.34632 cumulative IPC: 1.34632 (Simulation time: 0 hr 18 min 2 sec) 
Heartbeat CPU 0 instructions: 70000003 cycles: 31326662 heartbeat IPC: 1.35709 cumulative IPC: 1.35168 (Simulation time: 0 hr 20 min 33 sec) 
Heartbeat CPU 0 instructions: 80000000 cycles: 38581621 heartbeat IPC: 1.37837 cumulative IPC: 1.36046 (Simulation time: 0 hr 23 min 3 sec) 
Heartbeat CPU 0 instructions: 90000001 cycles: 46148770 heartbeat IPC: 1.3215 cumulative IPC: 1.35051 (Simulation time: 0 hr 25 min 14 sec) 
Heartbeat CPU 0 instructions: 100000003 cycles: 53917978 heartbeat IPC: 1.28713 cumulative IPC: 1.33734 (Simulation time: 0 hr 27 min 16 sec) 
Finished CPU 0 instructions: 50000000 cycles: 37387697 cumulative IPC: 1.33734 (Simulation time: 0 hr 27 min 16 sec) 

ChampSim completed all CPUs

Region of Interest Statistics

CPU 0 cumulative IPC: 1.33734 instructions: 50000000 cycles: 37387697
L1D TOTAL     ACCESS:   17632668  HIT:   17509535  MISS:     123133
L1D LOAD      ACCESS:    6661567  HIT:    6627333  MISS:      34234
L1D RFO       ACCESS:    4387890  HIT:    4345214  MISS:      42676
L1D PREFETCH  ACCESS:    6583211  HIT:    6536988  MISS:      46223
L1D WRITEBACK ACCESS:          0  HIT:          0  MISS:          0
L1D PREFETCH  REQUESTED:    6663974  ISSUED:    6596741  USEFUL:      17149  USELESS:      29256
L1D AVERAGE MISS LATENCY: 49.9159 cycles
L1I TOTAL     ACCESS:   54218020  HIT:   51654267  MISS:    2563753
L1I LOAD      ACCESS:    8868247  HIT:    8749469  MISS:     118778
L1I RFO       ACCESS:          0  HIT:          0  MISS:          0
L1I PREFETCH  ACCESS:   45349773  HIT:   42904798  MISS:    2444975
L1I WRITEBACK ACCESS:          0  HIT:          0  MISS:          0
L1I PREFETCH  REQUESTED:   61816319  ISSUED:   61816319  USEFUL:    1011697  USELESS:    1433280
L1I AVERAGE MISS LATENCY: 14.7071 cycles
L2C TOTAL     ACCESS:    4351689  HIT:    4313336  MISS:      38353
L2C LOAD      ACCESS:     136883  HIT:     123224  MISS:      13659
L2C RFO       ACCESS:      42549  HIT:      39669  MISS:       2880
L2C PREFETCH  ACCESS:    4098052  HIT:    4076394  MISS:      21658
L2C WRITEBACK ACCESS:      74205  HIT:      74049  MISS:        156
L2C PREFETCH  REQUESTED:    3973019  ISSUED:    3972427  USEFUL:       2295  USELESS:      19675
L2C AVERAGE MISS LATENCY: 121.059 cycles
LLC TOTAL     ACCESS:     107053  HIT:      67937  MISS:      39116
LLC LOAD      ACCESS:      13659  HIT:       5223  MISS:       8436
LLC RFO       ACCESS:       2880  HIT:       1267  MISS:       1613
LLC PREFETCH  ACCESS:      72415  HIT:      43989  MISS:      28426
LLC WRITEBACK ACCESS:      18099  HIT:      17458  MISS:        641
LLC PREFETCH  REQUESTED:          0  ISSUED:          0  USEFUL:       2585  USELESS:      24622
LLC AVERAGE MISS LATENCY: 185.826 cycles
Major fault: 0 Minor fault: 2776
CPU 0 L1I EPI prefetcher final stats
CPU 0 L1D next line prefetcher final stats

DRAM Statistics
 CHANNEL 0
 RQ ROW_BUFFER_HIT:       3004  ROW_BUFFER_MISS:      35471
 DBUS_CONGESTED:      24233
 WQ ROW_BUFFER_HIT:        796  ROW_BUFFER_MISS:      15178  FULL:          0

 AVG_CONGESTED_CYCLE: 5

CPU 0 Branch Prediction Accuracy: 93.9974% MPKI: 10.2447 Average ROB Occupancy at Mispredict: 39.8928

Branch types
NOT_BRANCH: 41466058 82.9321%
BRANCH_DIRECT_JUMP: 464313 0.928626%
BRANCH_INDIRECT: 32 6.4e-05%
BRANCH_CONDITIONAL: 7069452 14.1389%
BRANCH_DIRECT_CALL: 499587 0.999174%
BRANCH_INDIRECT_CALL: 342 0.000684%
BRANCH_RETURN: 499906 0.999812%
BRANCH_OTHER: 0 0%

