Initialize SIGNATURE TABLE
ST_SET: 1
ST_WAY: 256
ST_TAG_BIT: 16
ST_TAG_MASK: ffff

Initialize PATTERN TABLE
PT_SET: 512
PT_WAY: 4
SIG_DELTA_BIT: 7
C_SIG_BIT: 4
C_DELTA_BIT: 4

Initialize PREFETCH FILTER
FILTER_SET: 1024

*** ChampSim Multicore Out-of-Order Simulator ***

Warmup Instructions: 50000000
Simulation Instructions: 50000000
Number of CPUs: 1
LLC sets: 2048
LLC ways: 16
Off-chip DRAM Size: 4096 MB Channels: 1 Width: 64-bit Data Rate: 3200 MT/s

CPU 0 runs /home/ChampSim-master//dpc3_traces/spec_x264_001.champsimtrace.xz
L1I D-JOLT instruction prefetcher has been constructed!
CPU 0 L1D next line prefetcher
Heartbeat CPU 0 instructions: 10000002 cycles: 3059634 heartbeat IPC: 3.26837 cumulative IPC: 3.26837 (Simulation time: 0 hr 2 min 1 sec) 
Heartbeat CPU 0 instructions: 20000002 cycles: 6109320 heartbeat IPC: 3.27903 cumulative IPC: 3.27369 (Simulation time: 0 hr 4 min 0 sec) 
Heartbeat CPU 0 instructions: 30000002 cycles: 9144595 heartbeat IPC: 3.29459 cumulative IPC: 3.28063 (Simulation time: 0 hr 5 min 54 sec) 
Heartbeat CPU 0 instructions: 40000000 cycles: 12188760 heartbeat IPC: 3.28497 cumulative IPC: 3.28171 (Simulation time: 0 hr 7 min 47 sec) 
Heartbeat CPU 0 instructions: 50000000 cycles: 15231518 heartbeat IPC: 3.28649 cumulative IPC: 3.28267 (Simulation time: 0 hr 9 min 32 sec) 

Warmup complete CPU 0 instructions: 50000004 cycles: 15231519 (Simulation time: 0 hr 9 min 32 sec) 

Heartbeat CPU 0 instructions: 60000002 cycles: 21167162 heartbeat IPC: 1.68474 cumulative IPC: 1.68474 (Simulation time: 0 hr 10 min 43 sec) 
Heartbeat CPU 0 instructions: 70000000 cycles: 27083746 heartbeat IPC: 1.69016 cumulative IPC: 1.68745 (Simulation time: 0 hr 11 min 53 sec) 
Heartbeat CPU 0 instructions: 80000003 cycles: 33147207 heartbeat IPC: 1.64922 cumulative IPC: 1.67451 (Simulation time: 0 hr 13 min 3 sec) 
Heartbeat CPU 0 instructions: 90000001 cycles: 39189348 heartbeat IPC: 1.65504 cumulative IPC: 1.6696 (Simulation time: 0 hr 14 min 11 sec) 
Heartbeat CPU 0 instructions: 100000002 cycles: 45091074 heartbeat IPC: 1.69442 cumulative IPC: 1.67451 (Simulation time: 0 hr 15 min 17 sec) 
Finished CPU 0 instructions: 50000002 cycles: 29859556 cumulative IPC: 1.67451 (Simulation time: 0 hr 15 min 17 sec) 

ChampSim completed all CPUs

Region of Interest Statistics

CPU 0 cumulative IPC: 1.67451 instructions: 50000002 cycles: 29859556
L1D TOTAL     ACCESS:   12968901  HIT:   12807899  MISS:     161002
L1D LOAD      ACCESS:    5097291  HIT:    5042266  MISS:      55025
L1D RFO       ACCESS:    2881052  HIT:    2846679  MISS:      34373
L1D PREFETCH  ACCESS:    4990558  HIT:    4918954  MISS:      71604
L1D WRITEBACK ACCESS:          0  HIT:          0  MISS:          0
L1D PREFETCH  REQUESTED:    5114072  ISSUED:    5046602  USEFUL:      25762  USELESS:      45651
L1D AVERAGE MISS LATENCY: 40.8755 cycles
L1I TOTAL     ACCESS:    9511119  HIT:    9103665  MISS:     407454
L1I LOAD      ACCESS:    8031792  HIT:    8022950  MISS:       8842
L1I RFO       ACCESS:          0  HIT:          0  MISS:          0
L1I PREFETCH  ACCESS:    1479327  HIT:    1080715  MISS:     398612
L1I WRITEBACK ACCESS:          0  HIT:          0  MISS:          0
L1I PREFETCH  REQUESTED:    1593366  ISSUED:    1539074  USEFUL:     301076  USELESS:      97572
L1I AVERAGE MISS LATENCY: 14.8975 cycles
L2C TOTAL     ACCESS:     874730  HIT:     836169  MISS:      38561
L2C LOAD      ACCESS:      61299  HIT:      56012  MISS:       5287
L2C RFO       ACCESS:      34193  HIT:      22138  MISS:      12055
L2C PREFETCH  ACCESS:     736100  HIT:     714960  MISS:      21140
L2C WRITEBACK ACCESS:      43138  HIT:      43059  MISS:         79
L2C PREFETCH  REQUESTED:     647677  ISSUED:     643703  USEFUL:       8958  USELESS:      12422
L2C AVERAGE MISS LATENCY: 108.377 cycles
LLC TOTAL     ACCESS:     122043  HIT:      92883  MISS:      29160
LLC LOAD      ACCESS:       5287  HIT:       3126  MISS:       2161
LLC RFO       ACCESS:      12055  HIT:        438  MISS:      11617
LLC PREFETCH  ACCESS:      91086  HIT:      75767  MISS:      15319
LLC WRITEBACK ACCESS:      13615  HIT:      13552  MISS:         63
LLC PREFETCH  REQUESTED:          0  ISSUED:          0  USEFUL:       1675  USELESS:      13931
LLC AVERAGE MISS LATENCY: 167.026 cycles
Major fault: 0 Minor fault: 1285
CPU 0 L1D next line prefetcher final stats

DRAM Statistics
 CHANNEL 0
 RQ ROW_BUFFER_HIT:       8661  ROW_BUFFER_MISS:      20436
 DBUS_CONGESTED:      12338
 WQ ROW_BUFFER_HIT:       2917  ROW_BUFFER_MISS:       9888  FULL:          0

 AVG_CONGESTED_CYCLE: 6

CPU 0 Branch Prediction Accuracy: 97.1633% MPKI: 1.73704 Average ROB Occupancy at Mispredict: 43.1395

Branch types
NOT_BRANCH: 46937921 93.8758%
BRANCH_DIRECT_JUMP: 170816 0.341632%
BRANCH_INDIRECT: 0 0%
BRANCH_CONDITIONAL: 2532774 5.06555%
BRANCH_DIRECT_CALL: 114227 0.228454%
BRANCH_INDIRECT_CALL: 64863 0.129726%
BRANCH_RETURN: 179089 0.358178%
BRANCH_OTHER: 0 0%

