Initialize SIGNATURE TABLE
ST_SET: 1
ST_WAY: 256
ST_TAG_BIT: 16
ST_TAG_MASK: ffff

Initialize PATTERN TABLE
PT_SET: 512
PT_WAY: 4
SIG_DELTA_BIT: 7
C_SIG_BIT: 4
C_DELTA_BIT: 4

Initialize PREFETCH FILTER
FILTER_SET: 1024

*** ChampSim Multicore Out-of-Order Simulator ***

Warmup Instructions: 50000000
Simulation Instructions: 50000000
Number of CPUs: 1
LLC sets: 2048
LLC ways: 16
Off-chip DRAM Size: 4096 MB Channels: 1 Width: 64-bit Data Rate: 3200 MT/s

CPU 0 runs /home/ChampSim-master//dpc3_traces/spec_gobmk_002.champsimtrace.xz
L1I D-JOLT instruction prefetcher has been constructed!
CPU 0 L1D next line prefetcher
Heartbeat CPU 0 instructions: 10000001 cycles: 3287426 heartbeat IPC: 3.04189 cumulative IPC: 3.04189 (Simulation time: 0 hr 2 min 21 sec) 
Heartbeat CPU 0 instructions: 20000000 cycles: 6619026 heartbeat IPC: 3.00156 cumulative IPC: 3.02159 (Simulation time: 0 hr 4 min 41 sec) 
Heartbeat CPU 0 instructions: 30000000 cycles: 9956919 heartbeat IPC: 2.9959 cumulative IPC: 3.01298 (Simulation time: 0 hr 7 min 13 sec) 
Heartbeat CPU 0 instructions: 40000000 cycles: 13266336 heartbeat IPC: 3.02168 cumulative IPC: 3.01515 (Simulation time: 0 hr 9 min 50 sec) 
Heartbeat CPU 0 instructions: 50000003 cycles: 16529866 heartbeat IPC: 3.06417 cumulative IPC: 3.02483 (Simulation time: 0 hr 12 min 0 sec) 

Warmup complete CPU 0 instructions: 50000003 cycles: 16529866 (Simulation time: 0 hr 12 min 0 sec) 

Heartbeat CPU 0 instructions: 60000003 cycles: 23949195 heartbeat IPC: 1.34783 cumulative IPC: 1.34783 (Simulation time: 0 hr 13 min 46 sec) 
Heartbeat CPU 0 instructions: 70000001 cycles: 31310729 heartbeat IPC: 1.35841 cumulative IPC: 1.3531 (Simulation time: 0 hr 15 min 28 sec) 
Heartbeat CPU 0 instructions: 80000000 cycles: 38533808 heartbeat IPC: 1.38445 cumulative IPC: 1.36339 (Simulation time: 0 hr 17 min 7 sec) 
Heartbeat CPU 0 instructions: 90000003 cycles: 46067834 heartbeat IPC: 1.32731 cumulative IPC: 1.35419 (Simulation time: 0 hr 18 min 40 sec) 
Heartbeat CPU 0 instructions: 100000003 cycles: 53853396 heartbeat IPC: 1.28443 cumulative IPC: 1.33964 (Simulation time: 0 hr 20 min 13 sec) 
Finished CPU 0 instructions: 50000000 cycles: 37323530 cumulative IPC: 1.33964 (Simulation time: 0 hr 20 min 13 sec) 

ChampSim completed all CPUs

Region of Interest Statistics

CPU 0 cumulative IPC: 1.33964 instructions: 50000000 cycles: 37323530
L1D TOTAL     ACCESS:   17626677  HIT:   17503548  MISS:     123129
L1D LOAD      ACCESS:    6658827  HIT:    6624555  MISS:      34272
L1D RFO       ACCESS:    4388204  HIT:    4345522  MISS:      42682
L1D PREFETCH  ACCESS:    6579646  HIT:    6533471  MISS:      46175
L1D WRITEBACK ACCESS:          0  HIT:          0  MISS:          0
L1D PREFETCH  REQUESTED:    6661249  ISSUED:    6593921  USEFUL:      17106  USELESS:      29254
L1D AVERAGE MISS LATENCY: 50.8937 cycles
L1I TOTAL     ACCESS:   16084622  HIT:   13635800  MISS:    2448822
L1I LOAD      ACCESS:    8896511  HIT:    8817785  MISS:      78726
L1I RFO       ACCESS:          0  HIT:          0  MISS:          0
L1I PREFETCH  ACCESS:    7188111  HIT:    4818015  MISS:    2370096
L1I WRITEBACK ACCESS:          0  HIT:          0  MISS:          0
L1I PREFETCH  REQUESTED:    7567099  ISSUED:    7238241  USEFUL:    1131655  USELESS:    1238385
L1I AVERAGE MISS LATENCY: 14.5697 cycles
L2C TOTAL     ACCESS:    3696039  HIT:    3658362  MISS:      37677
L2C LOAD      ACCESS:     108473  HIT:      94571  MISS:      13902
L2C RFO       ACCESS:      42543  HIT:      39739  MISS:       2804
L2C PREFETCH  ACCESS:    3470816  HIT:    3450009  MISS:      20807
L2C WRITEBACK ACCESS:      74207  HIT:      74043  MISS:        164
L2C PREFETCH  REQUESTED:    1651482  ISSUED:    1651481  USEFUL:       2384  USELESS:      18879
L2C AVERAGE MISS LATENCY: 125.566 cycles
LLC TOTAL     ACCESS:      94351  HIT:      62930  MISS:      31421
LLC LOAD      ACCESS:      13902  HIT:       5225  MISS:       8677
LLC RFO       ACCESS:       2804  HIT:       1169  MISS:       1635
LLC PREFETCH  ACCESS:      59657  HIT:      39036  MISS:      20621
LLC WRITEBACK ACCESS:      17988  HIT:      17500  MISS:        488
LLC PREFETCH  REQUESTED:          0  ISSUED:          0  USEFUL:       1982  USELESS:      18376
LLC AVERAGE MISS LATENCY: 182.24 cycles
Major fault: 0 Minor fault: 2780
CPU 0 L1D next line prefetcher final stats

DRAM Statistics
 CHANNEL 0
 RQ ROW_BUFFER_HIT:       2490  ROW_BUFFER_MISS:      28443
 DBUS_CONGESTED:      13941
 WQ ROW_BUFFER_HIT:        786  ROW_BUFFER_MISS:      12807  FULL:          0

 AVG_CONGESTED_CYCLE: 4

CPU 0 Branch Prediction Accuracy: 93.9974% MPKI: 10.2447 Average ROB Occupancy at Mispredict: 39.9429

Branch types
NOT_BRANCH: 41466058 82.9321%
BRANCH_DIRECT_JUMP: 464313 0.928626%
BRANCH_INDIRECT: 32 6.4e-05%
BRANCH_CONDITIONAL: 7069453 14.1389%
BRANCH_DIRECT_CALL: 499587 0.999174%
BRANCH_INDIRECT_CALL: 342 0.000684%
BRANCH_RETURN: 499906 0.999812%
BRANCH_OTHER: 0 0%

