Initialize SIGNATURE TABLE
ST_SET: 1
ST_WAY: 256
ST_TAG_BIT: 16
ST_TAG_MASK: ffff

Initialize PATTERN TABLE
PT_SET: 512
PT_WAY: 4
SIG_DELTA_BIT: 7
C_SIG_BIT: 4
C_DELTA_BIT: 4

Initialize PREFETCH FILTER
FILTER_SET: 1024

*** ChampSim Multicore Out-of-Order Simulator ***

Warmup Instructions: 50000000
Simulation Instructions: 50000000
Number of CPUs: 1
LLC sets: 2048
LLC ways: 16
Off-chip DRAM Size: 4096 MB Channels: 1 Width: 64-bit Data Rate: 3200 MT/s

CPU 0 runs /home/ChampSim-master//dpc3_traces/spec_gobmk_002.champsimtrace.xz
L1I D-JOLT instruction prefetcher has been constructed!
CPU 0 L1D next line prefetcher
Heartbeat CPU 0 instructions: 10000001 cycles: 3287412 heartbeat IPC: 3.04191 cumulative IPC: 3.04191 (Simulation time: 0 hr 2 min 10 sec) 
Heartbeat CPU 0 instructions: 20000000 cycles: 6619008 heartbeat IPC: 3.00156 cumulative IPC: 3.0216 (Simulation time: 0 hr 4 min 19 sec) 
Heartbeat CPU 0 instructions: 30000000 cycles: 9956926 heartbeat IPC: 2.99588 cumulative IPC: 3.01298 (Simulation time: 0 hr 6 min 31 sec) 
Heartbeat CPU 0 instructions: 40000000 cycles: 13266343 heartbeat IPC: 3.02168 cumulative IPC: 3.01515 (Simulation time: 0 hr 8 min 56 sec) 
Heartbeat CPU 0 instructions: 50000003 cycles: 16529867 heartbeat IPC: 3.06417 cumulative IPC: 3.02483 (Simulation time: 0 hr 11 min 17 sec) 

Warmup complete CPU 0 instructions: 50000003 cycles: 16529867 (Simulation time: 0 hr 11 min 17 sec) 

Heartbeat CPU 0 instructions: 60000003 cycles: 23928404 heartbeat IPC: 1.35162 cumulative IPC: 1.35162 (Simulation time: 0 hr 13 min 10 sec) 
Heartbeat CPU 0 instructions: 70000003 cycles: 31271940 heartbeat IPC: 1.36174 cumulative IPC: 1.35666 (Simulation time: 0 hr 14 min 59 sec) 
Heartbeat CPU 0 instructions: 80000000 cycles: 38470979 heartbeat IPC: 1.38907 cumulative IPC: 1.3673 (Simulation time: 0 hr 16 min 44 sec) 
Heartbeat CPU 0 instructions: 90000001 cycles: 45998673 heartbeat IPC: 1.32843 cumulative IPC: 1.35737 (Simulation time: 0 hr 18 min 20 sec) 
Heartbeat CPU 0 instructions: 100000003 cycles: 53768242 heartbeat IPC: 1.28707 cumulative IPC: 1.3427 (Simulation time: 0 hr 19 min 58 sec) 
Finished CPU 0 instructions: 50000000 cycles: 37238375 cumulative IPC: 1.3427 (Simulation time: 0 hr 19 min 58 sec) 

ChampSim completed all CPUs

Region of Interest Statistics

CPU 0 cumulative IPC: 1.3427 instructions: 50000000 cycles: 37238375
L1D TOTAL     ACCESS:   17611969  HIT:   17488844  MISS:     123125
L1D LOAD      ACCESS:    6651753  HIT:    6617493  MISS:      34260
L1D RFO       ACCESS:    4387523  HIT:    4344822  MISS:      42701
L1D PREFETCH  ACCESS:    6572693  HIT:    6526529  MISS:      46164
L1D WRITEBACK ACCESS:          0  HIT:          0  MISS:          0
L1D PREFETCH  REQUESTED:    6654136  ISSUED:    6586883  USEFUL:      17098  USELESS:      29250
L1D AVERAGE MISS LATENCY: 50.902 cycles
L1I TOTAL     ACCESS:   15709127  HIT:   13723207  MISS:    1985920
L1I LOAD      ACCESS:    8877193  HIT:    8786490  MISS:      90703
L1I RFO       ACCESS:          0  HIT:          0  MISS:          0
L1I PREFETCH  ACCESS:    6831934  HIT:    4936717  MISS:    1895217
L1I WRITEBACK ACCESS:          0  HIT:          0  MISS:          0
L1I PREFETCH  REQUESTED:    7144106  ISSUED:    6955626  USEFUL:     985662  USELESS:     909517
L1I AVERAGE MISS LATENCY: 14.361 cycles
L2C TOTAL     ACCESS:    3037899  HIT:    3000282  MISS:      37617
L2C LOAD      ACCESS:      91187  HIT:      77346  MISS:      13841
L2C RFO       ACCESS:      42557  HIT:      39731  MISS:       2826
L2C PREFETCH  ACCESS:    2829952  HIT:    2809172  MISS:      20780
L2C WRITEBACK ACCESS:      74203  HIT:      74033  MISS:        170
L2C PREFETCH  REQUESTED:    1345623  ISSUED:    1345623  USEFUL:       2402  USELESS:      18820
L2C AVERAGE MISS LATENCY: 126.241 cycles
LLC TOTAL     ACCESS:      90749  HIT:      59627  MISS:      31122
LLC LOAD      ACCESS:      13841  HIT:       5104  MISS:       8737
LLC RFO       ACCESS:       2826  HIT:       1194  MISS:       1632
LLC PREFETCH  ACCESS:      56124  HIT:      35867  MISS:      20257
LLC WRITEBACK ACCESS:      17958  HIT:      17462  MISS:        496
LLC PREFETCH  REQUESTED:          0  ISSUED:          0  USEFUL:       1960  USELESS:      18125
LLC AVERAGE MISS LATENCY: 182.212 cycles
Major fault: 0 Minor fault: 2780
CPU 0 L1D next line prefetcher final stats

DRAM Statistics
 CHANNEL 0
 RQ ROW_BUFFER_HIT:       2509  ROW_BUFFER_MISS:      28117
 DBUS_CONGESTED:      14242
 WQ ROW_BUFFER_HIT:        821  ROW_BUFFER_MISS:      12592  FULL:          0

 AVG_CONGESTED_CYCLE: 4

CPU 0 Branch Prediction Accuracy: 93.9974% MPKI: 10.2447 Average ROB Occupancy at Mispredict: 40.0701

Branch types
NOT_BRANCH: 41466060 82.9321%
BRANCH_DIRECT_JUMP: 464313 0.928626%
BRANCH_INDIRECT: 32 6.4e-05%
BRANCH_CONDITIONAL: 7069455 14.1389%
BRANCH_DIRECT_CALL: 499587 0.999174%
BRANCH_INDIRECT_CALL: 342 0.000684%
BRANCH_RETURN: 499906 0.999812%
BRANCH_OTHER: 0 0%

