Initialize SIGNATURE TABLE
ST_SET: 1
ST_WAY: 256
ST_TAG_BIT: 16
ST_TAG_MASK: ffff

Initialize PATTERN TABLE
PT_SET: 512
PT_WAY: 4
SIG_DELTA_BIT: 7
C_SIG_BIT: 4
C_DELTA_BIT: 4

Initialize PREFETCH FILTER
FILTER_SET: 1024

*** ChampSim Multicore Out-of-Order Simulator ***

Warmup Instructions: 50000000
Simulation Instructions: 50000000
Number of CPUs: 1
LLC sets: 2048
LLC ways: 16
Off-chip DRAM Size: 4096 MB Channels: 1 Width: 64-bit Data Rate: 3200 MT/s

CPU 0 runs /home/ChampSim-master//dpc3_traces/spec_x264_001.champsimtrace.xz
L1I D-JOLT instruction prefetcher has been constructed!
CPU 0 L1D next line prefetcher
Heartbeat CPU 0 instructions: 10000002 cycles: 3059653 heartbeat IPC: 3.26835 cumulative IPC: 3.26835 (Simulation time: 0 hr 1 min 47 sec) 
Heartbeat CPU 0 instructions: 20000002 cycles: 6109440 heartbeat IPC: 3.27892 cumulative IPC: 3.27362 (Simulation time: 0 hr 3 min 29 sec) 
Heartbeat CPU 0 instructions: 30000002 cycles: 9144679 heartbeat IPC: 3.29463 cumulative IPC: 3.2806 (Simulation time: 0 hr 5 min 11 sec) 
Heartbeat CPU 0 instructions: 40000000 cycles: 12188720 heartbeat IPC: 3.28511 cumulative IPC: 3.28172 (Simulation time: 0 hr 6 min 53 sec) 
Heartbeat CPU 0 instructions: 50000000 cycles: 15231594 heartbeat IPC: 3.28637 cumulative IPC: 3.28265 (Simulation time: 0 hr 8 min 38 sec) 

Warmup complete CPU 0 instructions: 50000004 cycles: 15231595 (Simulation time: 0 hr 8 min 38 sec) 

Heartbeat CPU 0 instructions: 60000002 cycles: 21164096 heartbeat IPC: 1.68563 cumulative IPC: 1.68563 (Simulation time: 0 hr 9 min 51 sec) 
Heartbeat CPU 0 instructions: 70000000 cycles: 27079534 heartbeat IPC: 1.69049 cumulative IPC: 1.68806 (Simulation time: 0 hr 11 min 3 sec) 
Heartbeat CPU 0 instructions: 80000003 cycles: 33142635 heartbeat IPC: 1.64932 cumulative IPC: 1.67494 (Simulation time: 0 hr 12 min 14 sec) 
Heartbeat CPU 0 instructions: 90000002 cycles: 39184901 heartbeat IPC: 1.65501 cumulative IPC: 1.66992 (Simulation time: 0 hr 13 min 28 sec) 
Heartbeat CPU 0 instructions: 100000002 cycles: 45087022 heartbeat IPC: 1.69431 cumulative IPC: 1.67474 (Simulation time: 0 hr 14 min 46 sec) 
Finished CPU 0 instructions: 50000002 cycles: 29855428 cumulative IPC: 1.67474 (Simulation time: 0 hr 14 min 46 sec) 

ChampSim completed all CPUs

Region of Interest Statistics

CPU 0 cumulative IPC: 1.67474 instructions: 50000002 cycles: 29855428
L1D TOTAL     ACCESS:   12962453  HIT:   12801434  MISS:     161019
L1D LOAD      ACCESS:    5093459  HIT:    5038381  MISS:      55078
L1D RFO       ACCESS:    2880943  HIT:    2846642  MISS:      34301
L1D PREFETCH  ACCESS:    4988051  HIT:    4916411  MISS:      71640
L1D WRITEBACK ACCESS:          0  HIT:          0  MISS:          0
L1D PREFETCH  REQUESTED:    5110162  ISSUED:    5042876  USEFUL:      25781  USELESS:      45668
L1D AVERAGE MISS LATENCY: 40.6295 cycles
L1I TOTAL     ACCESS:    9596146  HIT:    9182670  MISS:     413476
L1I LOAD      ACCESS:    8034470  HIT:    8026118  MISS:       8352
L1I RFO       ACCESS:          0  HIT:          0  MISS:          0
L1I PREFETCH  ACCESS:    1561676  HIT:    1156552  MISS:     405124
L1I WRITEBACK ACCESS:          0  HIT:          0  MISS:          0
L1I PREFETCH  REQUESTED:    1664912  ISSUED:    1658357  USEFUL:     303269  USELESS:     101895
L1I AVERAGE MISS LATENCY: 14.9449 cycles
L2C TOTAL     ACCESS:     872907  HIT:     834349  MISS:      38558
L2C LOAD      ACCESS:      61290  HIT:      56018  MISS:       5272
L2C RFO       ACCESS:      34063  HIT:      22005  MISS:      12058
L2C PREFETCH  ACCESS:     734473  HIT:     713317  MISS:      21156
L2C WRITEBACK ACCESS:      43081  HIT:      43009  MISS:         72
L2C PREFETCH  REQUESTED:     654877  ISSUED:     649795  USEFUL:       8951  USELESS:      12423
L2C AVERAGE MISS LATENCY: 107.075 cycles
LLC TOTAL     ACCESS:     126503  HIT:      97360  MISS:      29143
LLC LOAD      ACCESS:       5272  HIT:       3142  MISS:       2130
LLC RFO       ACCESS:      12058  HIT:        441  MISS:      11617
LLC PREFETCH  ACCESS:      95549  HIT:      80210  MISS:      15339
LLC WRITEBACK ACCESS:      13624  HIT:      13567  MISS:         57
LLC PREFETCH  REQUESTED:          0  ISSUED:          0  USEFUL:       1704  USELESS:      13965
LLC AVERAGE MISS LATENCY: 166.727 cycles
Major fault: 0 Minor fault: 1285
CPU 0 L1D next line prefetcher final stats

DRAM Statistics
 CHANNEL 0
 RQ ROW_BUFFER_HIT:       8691  ROW_BUFFER_MISS:      20395
 DBUS_CONGESTED:      12193
 WQ ROW_BUFFER_HIT:       2888  ROW_BUFFER_MISS:       9920  FULL:          0

 AVG_CONGESTED_CYCLE: 6

CPU 0 Branch Prediction Accuracy: 97.1633% MPKI: 1.73704 Average ROB Occupancy at Mispredict: 42.9854

Branch types
NOT_BRANCH: 46937921 93.8758%
BRANCH_DIRECT_JUMP: 170816 0.341632%
BRANCH_INDIRECT: 0 0%
BRANCH_CONDITIONAL: 2532774 5.06555%
BRANCH_DIRECT_CALL: 114227 0.228454%
BRANCH_INDIRECT_CALL: 64863 0.129726%
BRANCH_RETURN: 179089 0.358178%
BRANCH_OTHER: 0 0%

