Initialize SIGNATURE TABLE
ST_SET: 1
ST_WAY: 256
ST_TAG_BIT: 16
ST_TAG_MASK: ffff

Initialize PATTERN TABLE
PT_SET: 512
PT_WAY: 4
SIG_DELTA_BIT: 7
C_SIG_BIT: 4
C_DELTA_BIT: 4

Initialize PREFETCH FILTER
FILTER_SET: 1024

*** ChampSim Multicore Out-of-Order Simulator ***

Warmup Instructions: 50000000
Simulation Instructions: 50000000
Number of CPUs: 1
LLC sets: 2048
LLC ways: 16
Off-chip DRAM Size: 4096 MB Channels: 1 Width: 64-bit Data Rate: 3200 MT/s

CPU 0 runs /home/ChampSim-master//dpc3_traces/spec_x264_001.champsimtrace.xz
L1I D-JOLT instruction prefetcher has been constructed!
CPU 0 L1D next line prefetcher
Heartbeat CPU 0 instructions: 10000002 cycles: 3059475 heartbeat IPC: 3.26854 cumulative IPC: 3.26854 (Simulation time: 0 hr 1 min 47 sec) 
Heartbeat CPU 0 instructions: 20000002 cycles: 6109015 heartbeat IPC: 3.27918 cumulative IPC: 3.27385 (Simulation time: 0 hr 3 min 33 sec) 
Heartbeat CPU 0 instructions: 30000002 cycles: 9144260 heartbeat IPC: 3.29463 cumulative IPC: 3.28075 (Simulation time: 0 hr 5 min 9 sec) 
Heartbeat CPU 0 instructions: 40000000 cycles: 12188225 heartbeat IPC: 3.28519 cumulative IPC: 3.28186 (Simulation time: 0 hr 6 min 44 sec) 
Heartbeat CPU 0 instructions: 50000000 cycles: 15231028 heartbeat IPC: 3.28644 cumulative IPC: 3.28277 (Simulation time: 0 hr 8 min 19 sec) 

Warmup complete CPU 0 instructions: 50000004 cycles: 15231029 (Simulation time: 0 hr 8 min 19 sec) 

Heartbeat CPU 0 instructions: 60000002 cycles: 21162837 heartbeat IPC: 1.68583 cumulative IPC: 1.68583 (Simulation time: 0 hr 9 min 25 sec) 
Heartbeat CPU 0 instructions: 70000000 cycles: 27074636 heartbeat IPC: 1.69153 cumulative IPC: 1.68867 (Simulation time: 0 hr 10 min 31 sec) 
Heartbeat CPU 0 instructions: 80000003 cycles: 33132545 heartbeat IPC: 1.65074 cumulative IPC: 1.67584 (Simulation time: 0 hr 11 min 37 sec) 
Heartbeat CPU 0 instructions: 90000002 cycles: 39171267 heartbeat IPC: 1.65598 cumulative IPC: 1.67083 (Simulation time: 0 hr 12 min 42 sec) 
Heartbeat CPU 0 instructions: 100000002 cycles: 45070574 heartbeat IPC: 1.69511 cumulative IPC: 1.67563 (Simulation time: 0 hr 13 min 46 sec) 
Finished CPU 0 instructions: 50000002 cycles: 29839546 cumulative IPC: 1.67563 (Simulation time: 0 hr 13 min 46 sec) 

ChampSim completed all CPUs

Region of Interest Statistics

CPU 0 cumulative IPC: 1.67563 instructions: 50000002 cycles: 29839546
L1D TOTAL     ACCESS:   12965616  HIT:   12804671  MISS:     160945
L1D LOAD      ACCESS:    5095246  HIT:    5040185  MISS:      55061
L1D RFO       ACCESS:    2880731  HIT:    2846411  MISS:      34320
L1D PREFETCH  ACCESS:    4989639  HIT:    4918075  MISS:      71564
L1D WRITEBACK ACCESS:          0  HIT:          0  MISS:          0
L1D PREFETCH  REQUESTED:    5111978  ISSUED:    5044415  USEFUL:      25754  USELESS:      45619
L1D AVERAGE MISS LATENCY: 40.7401 cycles
L1I TOTAL     ACCESS:    9808759  HIT:    9400229  MISS:     408530
L1I LOAD      ACCESS:    8037234  HIT:    8029340  MISS:       7894
L1I RFO       ACCESS:          0  HIT:          0  MISS:          0
L1I PREFETCH  ACCESS:    1771525  HIT:    1370889  MISS:     400636
L1I WRITEBACK ACCESS:          0  HIT:          0  MISS:          0
L1I PREFETCH  REQUESTED:    1929077  ISSUED:    1889902  USEFUL:     301510  USELESS:      99161
L1I AVERAGE MISS LATENCY: 14.9032 cycles
L2C TOTAL     ACCESS:     871526  HIT:     832960  MISS:      38566
L2C LOAD      ACCESS:      60652  HIT:      55350  MISS:       5302
L2C RFO       ACCESS:      34121  HIT:      22070  MISS:      12051
L2C PREFETCH  ACCESS:     733646  HIT:     712507  MISS:      21139
L2C WRITEBACK ACCESS:      43107  HIT:      43033  MISS:         74
L2C PREFETCH  REQUESTED:     630340  ISSUED:     626600  USEFUL:       8925  USELESS:      12440
L2C AVERAGE MISS LATENCY: 107.723 cycles
LLC TOTAL     ACCESS:     119252  HIT:      90099  MISS:      29153
LLC LOAD      ACCESS:       5300  HIT:       3176  MISS:       2124
LLC RFO       ACCESS:      12051  HIT:        439  MISS:      11612
LLC PREFETCH  ACCESS:      88306  HIT:      72953  MISS:      15353
LLC WRITEBACK ACCESS:      13595  HIT:      13531  MISS:         64
LLC PREFETCH  REQUESTED:          0  ISSUED:          0  USEFUL:       1729  USELESS:      14003
LLC AVERAGE MISS LATENCY: 166.13 cycles
Major fault: 0 Minor fault: 1285
CPU 0 L1D next line prefetcher final stats

DRAM Statistics
 CHANNEL 0
 RQ ROW_BUFFER_HIT:       8794  ROW_BUFFER_MISS:      20295
 DBUS_CONGESTED:      12249
 WQ ROW_BUFFER_HIT:       2961  ROW_BUFFER_MISS:       9826  FULL:          0

 AVG_CONGESTED_CYCLE: 6

CPU 0 Branch Prediction Accuracy: 97.1633% MPKI: 1.73704 Average ROB Occupancy at Mispredict: 43.0252

Branch types
NOT_BRANCH: 46937921 93.8758%
BRANCH_DIRECT_JUMP: 170816 0.341632%
BRANCH_INDIRECT: 0 0%
BRANCH_CONDITIONAL: 2532774 5.06555%
BRANCH_DIRECT_CALL: 114227 0.228454%
BRANCH_INDIRECT_CALL: 64863 0.129726%
BRANCH_RETURN: 179089 0.358178%
BRANCH_OTHER: 0 0%

