Initialize SIGNATURE TABLE
ST_SET: 1
ST_WAY: 256
ST_TAG_BIT: 16
ST_TAG_MASK: ffff

Initialize PATTERN TABLE
PT_SET: 512
PT_WAY: 4
SIG_DELTA_BIT: 7
C_SIG_BIT: 4
C_DELTA_BIT: 4

Initialize PREFETCH FILTER
FILTER_SET: 1024

*** ChampSim Multicore Out-of-Order Simulator ***

Warmup Instructions: 50000000
Simulation Instructions: 50000000
Number of CPUs: 1
LLC sets: 2048
LLC ways: 16
Off-chip DRAM Size: 4096 MB Channels: 1 Width: 64-bit Data Rate: 3200 MT/s

CPU 0 runs /home/ChampSim-master//dpc3_traces/spec_gobmk_001.champsimtrace.xz
L1I D-JOLT instruction prefetcher has been constructed!
CPU 0 L1D next line prefetcher
Heartbeat CPU 0 instructions: 10000003 cycles: 3508597 heartbeat IPC: 2.85014 cumulative IPC: 2.85014 (Simulation time: 0 hr 2 min 40 sec) 
Heartbeat CPU 0 instructions: 20000002 cycles: 6990155 heartbeat IPC: 2.87228 cumulative IPC: 2.86117 (Simulation time: 0 hr 5 min 20 sec) 
Heartbeat CPU 0 instructions: 30000002 cycles: 10508987 heartbeat IPC: 2.84185 cumulative IPC: 2.8547 (Simulation time: 0 hr 8 min 7 sec) 
Heartbeat CPU 0 instructions: 40000001 cycles: 14028003 heartbeat IPC: 2.8417 cumulative IPC: 2.85144 (Simulation time: 0 hr 10 min 46 sec) 
Heartbeat CPU 0 instructions: 50000001 cycles: 17567923 heartbeat IPC: 2.82492 cumulative IPC: 2.8461 (Simulation time: 0 hr 12 min 55 sec) 

Warmup complete CPU 0 instructions: 50000001 cycles: 17567923 (Simulation time: 0 hr 12 min 55 sec) 

Heartbeat CPU 0 instructions: 60000000 cycles: 26326734 heartbeat IPC: 1.14171 cumulative IPC: 1.14171 (Simulation time: 0 hr 14 min 47 sec) 
Heartbeat CPU 0 instructions: 70000002 cycles: 34726271 heartbeat IPC: 1.19054 cumulative IPC: 1.16561 (Simulation time: 0 hr 16 min 43 sec) 
Heartbeat CPU 0 instructions: 80000003 cycles: 43564595 heartbeat IPC: 1.13144 cumulative IPC: 1.15399 (Simulation time: 0 hr 18 min 29 sec) 
Heartbeat CPU 0 instructions: 90000001 cycles: 52062277 heartbeat IPC: 1.17679 cumulative IPC: 1.15961 (Simulation time: 0 hr 20 min 13 sec) 
Heartbeat CPU 0 instructions: 100000003 cycles: 60881086 heartbeat IPC: 1.13394 cumulative IPC: 1.15438 (Simulation time: 0 hr 22 min 0 sec) 
Finished CPU 0 instructions: 50000002 cycles: 43313163 cumulative IPC: 1.15438 (Simulation time: 0 hr 22 min 0 sec) 

ChampSim completed all CPUs

Region of Interest Statistics

CPU 0 cumulative IPC: 1.15438 instructions: 50000002 cycles: 43313163
L1D TOTAL     ACCESS:   17982336  HIT:   17602829  MISS:     379507
L1D LOAD      ACCESS:    7210261  HIT:    7075018  MISS:     135243
L1D RFO       ACCESS:    3700926  HIT:    3596364  MISS:     104562
L1D PREFETCH  ACCESS:    7071149  HIT:    6931447  MISS:     139702
L1D WRITEBACK ACCESS:          0  HIT:          0  MISS:          0
L1D PREFETCH  REQUESTED:    7215585  ISSUED:    7132856  USEFUL:      45024  USELESS:      94684
L1D AVERAGE MISS LATENCY: 33.6977 cycles
L1I TOTAL     ACCESS:   14204322  HIT:   12549458  MISS:    1654864
L1I LOAD      ACCESS:    8976825  HIT:    8928456  MISS:      48369
L1I RFO       ACCESS:          0  HIT:          0  MISS:          0
L1I PREFETCH  ACCESS:    5227497  HIT:    3621002  MISS:    1606495
L1I WRITEBACK ACCESS:          0  HIT:          0  MISS:          0
L1I PREFETCH  REQUESTED:    5435043  ISSUED:    5265970  USEFUL:     811612  USELESS:     794829
L1I AVERAGE MISS LATENCY: 15.2301 cycles
L2C TOTAL     ACCESS:    2972673  HIT:    2845384  MISS:     127289
L2C LOAD      ACCESS:     157748  HIT:     121967  MISS:      35781
L2C RFO       ACCESS:     104209  HIT:      69814  MISS:      34395
L2C PREFETCH  ACCESS:    2571416  HIT:    2514398  MISS:      57018
L2C WRITEBACK ACCESS:     139300  HIT:     139205  MISS:         95
L2C PREFETCH  REQUESTED:    1370404  ISSUED:    1370255  USEFUL:       5402  USELESS:      51870
L2C AVERAGE MISS LATENCY: 63.9184 cycles
LLC TOTAL     ACCESS:     270655  HIT:     237108  MISS:      33547
LLC LOAD      ACCESS:      35778  HIT:      27600  MISS:       8178
LLC RFO       ACCESS:      34395  HIT:      28120  MISS:       6275
LLC PREFETCH  ACCESS:     155065  HIT:     136190  MISS:      18875
LLC WRITEBACK ACCESS:      45417  HIT:      45198  MISS:        219
LLC PREFETCH  REQUESTED:          0  ISSUED:          0  USEFUL:       1287  USELESS:      16562
LLC AVERAGE MISS LATENCY: 179.205 cycles
Major fault: 0 Minor fault: 4161
CPU 0 L1D next line prefetcher final stats

DRAM Statistics
 CHANNEL 0
 RQ ROW_BUFFER_HIT:       4381  ROW_BUFFER_MISS:      28946
 DBUS_CONGESTED:      17503
 WQ ROW_BUFFER_HIT:       1409  ROW_BUFFER_MISS:      13975  FULL:          0

 AVG_CONGESTED_CYCLE: 4

CPU 0 Branch Prediction Accuracy: 94.7729% MPKI: 9.72684 Average ROB Occupancy at Mispredict: 54.1027

Branch types
NOT_BRANCH: 40695383 81.3908%
BRANCH_DIRECT_JUMP: 422107 0.844214%
BRANCH_INDIRECT: 65 0.00013%
BRANCH_CONDITIONAL: 8105005 16.21%
BRANCH_DIRECT_CALL: 374913 0.749826%
BRANCH_INDIRECT_CALL: 13657 0.027314%
BRANCH_RETURN: 388556 0.777112%
BRANCH_OTHER: 0 0%

