Initialize SIGNATURE TABLE
ST_SET: 1
ST_WAY: 256
ST_TAG_BIT: 16
ST_TAG_MASK: ffff

Initialize PATTERN TABLE
PT_SET: 512
PT_WAY: 4
SIG_DELTA_BIT: 7
C_SIG_BIT: 4
C_DELTA_BIT: 4

Initialize PREFETCH FILTER
FILTER_SET: 1024

*** ChampSim Multicore Out-of-Order Simulator ***

Warmup Instructions: 50000000
Simulation Instructions: 50000000
Number of CPUs: 1
LLC sets: 2048
LLC ways: 16
Off-chip DRAM Size: 4096 MB Channels: 1 Width: 64-bit Data Rate: 3200 MT/s

CPU 0 runs /home/ChampSim-master//dpc3_traces/spec_gcc_002.champsimtrace.xz
L1I D-JOLT instruction prefetcher has been constructed!
CPU 0 L1D next line prefetcher
Heartbeat CPU 0 instructions: 10000002 cycles: 3533095 heartbeat IPC: 2.83038 cumulative IPC: 2.83038 (Simulation time: 0 hr 2 min 54 sec) 
Heartbeat CPU 0 instructions: 20000000 cycles: 7099195 heartbeat IPC: 2.80418 cumulative IPC: 2.81722 (Simulation time: 0 hr 5 min 37 sec) 
Heartbeat CPU 0 instructions: 30000000 cycles: 10742263 heartbeat IPC: 2.74494 cumulative IPC: 2.79271 (Simulation time: 0 hr 8 min 9 sec) 
Heartbeat CPU 0 instructions: 40000000 cycles: 14292389 heartbeat IPC: 2.8168 cumulative IPC: 2.79869 (Simulation time: 0 hr 10 min 37 sec) 
Heartbeat CPU 0 instructions: 50000002 cycles: 17778924 heartbeat IPC: 2.86818 cumulative IPC: 2.81232 (Simulation time: 0 hr 12 min 52 sec) 

Warmup complete CPU 0 instructions: 50000002 cycles: 17778924 (Simulation time: 0 hr 12 min 52 sec) 

Heartbeat CPU 0 instructions: 60000001 cycles: 57784347 heartbeat IPC: 0.249966 cumulative IPC: 0.249966 (Simulation time: 0 hr 17 min 44 sec) 
Heartbeat CPU 0 instructions: 70000001 cycles: 89995597 heartbeat IPC: 0.310451 cumulative IPC: 0.276944 (Simulation time: 0 hr 22 min 9 sec) 
Heartbeat CPU 0 instructions: 80000002 cycles: 139417580 heartbeat IPC: 0.202339 cumulative IPC: 0.246632 (Simulation time: 0 hr 26 min 43 sec) 
Heartbeat CPU 0 instructions: 90000001 cycles: 184277002 heartbeat IPC: 0.222919 cumulative IPC: 0.240243 (Simulation time: 0 hr 27 min 51 sec) 
Heartbeat CPU 0 instructions: 100000000 cycles: 216023278 heartbeat IPC: 0.314998 cumulative IPC: 0.252214 (Simulation time: 0 hr 28 min 22 sec) 
Finished CPU 0 instructions: 50000002 cycles: 198244362 cumulative IPC: 0.252214 (Simulation time: 0 hr 28 min 22 sec) 

ChampSim completed all CPUs

Region of Interest Statistics

CPU 0 cumulative IPC: 0.252214 instructions: 50000002 cycles: 198244362
L1D TOTAL     ACCESS:   18167701  HIT:   12934233  MISS:    5233468
L1D LOAD      ACCESS:    6330381  HIT:    5271705  MISS:    1058676
L1D RFO       ACCESS:    7023845  HIT:    3423206  MISS:    3600639
L1D PREFETCH  ACCESS:    4813475  HIT:    4239322  MISS:     574153
L1D WRITEBACK ACCESS:          0  HIT:          0  MISS:          0
L1D PREFETCH  REQUESTED:    6350724  ISSUED:    6279898  USEFUL:     414551  USELESS:     159818
L1D AVERAGE MISS LATENCY: 335.341 cycles
L1I TOTAL     ACCESS:   16940207  HIT:   15662941  MISS:    1277266
L1I LOAD      ACCESS:   12113280  HIT:   12056922  MISS:      56358
L1I RFO       ACCESS:          0  HIT:          0  MISS:          0
L1I PREFETCH  ACCESS:    4826927  HIT:    3606019  MISS:    1220908
L1I WRITEBACK ACCESS:          0  HIT:          0  MISS:          0
L1I PREFETCH  REQUESTED:    5429633  ISSUED:    5171374  USEFUL:     689899  USELESS:     531066
L1I AVERAGE MISS LATENCY: 63.3267 cycles
L2C TOTAL     ACCESS:   10746330  HIT:    5396905  MISS:    5349425
L2C LOAD      ACCESS:     284128  HIT:     122614  MISS:     161514
L2C RFO       ACCESS:    3599060  HIT:      12981  MISS:    3586079
L2C PREFETCH  ACCESS:    3137636  HIT:    1535949  MISS:    1601687
L2C WRITEBACK ACCESS:    3725506  HIT:    3725361  MISS:        145
L2C PREFETCH  REQUESTED:    3152206  ISSUED:    3152117  USEFUL:      28566  USELESS:    1573312
L2C AVERAGE MISS LATENCY: 346.362 cycles
LLC TOTAL     ACCESS:   10033060  HIT:    6118020  MISS:    3915040
LLC LOAD      ACCESS:     161333  HIT:      94417  MISS:      66916
LLC RFO       ACCESS:    3586080  HIT:     575401  MISS:    3010679
LLC PREFETCH  ACCESS:    2620320  HIT:    1782875  MISS:     837445
LLC WRITEBACK ACCESS:    3665327  HIT:    3665327  MISS:          0
LLC PREFETCH  REQUESTED:          0  ISSUED:          0  USEFUL:     144146  USELESS:     688751
LLC AVERAGE MISS LATENCY: 457.236 cycles
Major fault: 0 Minor fault: 4154
CPU 0 L1D next line prefetcher final stats

DRAM Statistics
 CHANNEL 0
 RQ ROW_BUFFER_HIT:    1040528  ROW_BUFFER_MISS:    2872425
 DBUS_CONGESTED:    5580551
 WQ ROW_BUFFER_HIT:     942458  ROW_BUFFER_MISS:    2244854  FULL:          0

 AVG_CONGESTED_CYCLE: 6

CPU 0 Branch Prediction Accuracy: 99.5987% MPKI: 0.82446 Average ROB Occupancy at Mispredict: 135.399

Branch types
NOT_BRANCH: 39726803 79.4536%
BRANCH_DIRECT_JUMP: 391438 0.782876%
BRANCH_INDIRECT: 62076 0.124152%
BRANCH_CONDITIONAL: 8421539 16.8431%
BRANCH_DIRECT_CALL: 672962 1.34592%
BRANCH_INDIRECT_CALL: 26115 0.05223%
BRANCH_RETURN: 699082 1.39816%
BRANCH_OTHER: 0 0%

