Initialize SIGNATURE TABLE
ST_SET: 1
ST_WAY: 256
ST_TAG_BIT: 16
ST_TAG_MASK: ffff

Initialize PATTERN TABLE
PT_SET: 512
PT_WAY: 4
SIG_DELTA_BIT: 7
C_SIG_BIT: 4
C_DELTA_BIT: 4

Initialize PREFETCH FILTER
FILTER_SET: 1024

*** ChampSim Multicore Out-of-Order Simulator ***

Warmup Instructions: 50000000
Simulation Instructions: 50000000
Number of CPUs: 1
LLC sets: 2048
LLC ways: 16
Off-chip DRAM Size: 4096 MB Channels: 1 Width: 64-bit Data Rate: 3200 MT/s

CPU 0 runs /home/ChampSim-master//dpc3_traces/spec_perlbench_001.champsimtrace.xz
L1I D-JOLT instruction prefetcher has been constructed!
CPU 0 L1D next line prefetcher
Heartbeat CPU 0 instructions: 10000000 cycles: 3276201 heartbeat IPC: 3.05232 cumulative IPC: 3.05232 (Simulation time: 0 hr 2 min 28 sec) 
Heartbeat CPU 0 instructions: 20000000 cycles: 6541684 heartbeat IPC: 3.06233 cumulative IPC: 3.05732 (Simulation time: 0 hr 5 min 6 sec) 
Heartbeat CPU 0 instructions: 30000002 cycles: 9860463 heartbeat IPC: 3.01316 cumulative IPC: 3.04245 (Simulation time: 0 hr 7 min 55 sec) 
Heartbeat CPU 0 instructions: 40000002 cycles: 13116749 heartbeat IPC: 3.07098 cumulative IPC: 3.04954 (Simulation time: 0 hr 10 min 27 sec) 
Heartbeat CPU 0 instructions: 50000001 cycles: 16391206 heartbeat IPC: 3.05394 cumulative IPC: 3.05042 (Simulation time: 0 hr 12 min 51 sec) 

Warmup complete CPU 0 instructions: 50000001 cycles: 16391206 (Simulation time: 0 hr 12 min 51 sec) 

Heartbeat CPU 0 instructions: 60000001 cycles: 24717414 heartbeat IPC: 1.20103 cumulative IPC: 1.20103 (Simulation time: 0 hr 15 min 46 sec) 
Heartbeat CPU 0 instructions: 70000003 cycles: 32918429 heartbeat IPC: 1.21936 cumulative IPC: 1.21012 (Simulation time: 0 hr 18 min 43 sec) 
Heartbeat CPU 0 instructions: 80000000 cycles: 41388256 heartbeat IPC: 1.18066 cumulative IPC: 1.20014 (Simulation time: 0 hr 21 min 23 sec) 
Heartbeat CPU 0 instructions: 90000000 cycles: 47146597 heartbeat IPC: 1.73661 cumulative IPC: 1.30058 (Simulation time: 0 hr 23 min 22 sec) 
Heartbeat CPU 0 instructions: 100000002 cycles: 53055560 heartbeat IPC: 1.69234 cumulative IPC: 1.36372 (Simulation time: 0 hr 25 min 8 sec) 
Finished CPU 0 instructions: 50000001 cycles: 36664354 cumulative IPC: 1.36372 (Simulation time: 0 hr 25 min 8 sec) 

ChampSim completed all CPUs

Region of Interest Statistics

CPU 0 cumulative IPC: 1.36372 instructions: 50000001 cycles: 36664354
L1D TOTAL     ACCESS:   20681088  HIT:   20265991  MISS:     415097
L1D LOAD      ACCESS:    7170494  HIT:    6956721  MISS:     213773
L1D RFO       ACCESS:    6542257  HIT:    6523733  MISS:      18524
L1D PREFETCH  ACCESS:    6968337  HIT:    6785537  MISS:     182800
L1D WRITEBACK ACCESS:          0  HIT:          0  MISS:          0
L1D PREFETCH  REQUESTED:    7186315  ISSUED:    7069846  USEFUL:      55117  USELESS:     127678
L1D AVERAGE MISS LATENCY: 59.4462 cycles
L1I TOTAL     ACCESS:   15531388  HIT:   14202698  MISS:    1328690
L1I LOAD      ACCESS:    9177726  HIT:    9117209  MISS:      60517
L1I RFO       ACCESS:          0  HIT:          0  MISS:          0
L1I PREFETCH  ACCESS:    6353662  HIT:    5085489  MISS:    1268173
L1I WRITEBACK ACCESS:          0  HIT:          0  MISS:          0
L1I PREFETCH  REQUESTED:    6918094  ISSUED:    6582203  USEFUL:     554787  USELESS:     713404
L1I AVERAGE MISS LATENCY: 16.4389 cycles
L2C TOTAL     ACCESS:    2461060  HIT:    2289403  MISS:     171657
L2C LOAD      ACCESS:     266504  HIT:     183709  MISS:      82795
L2C RFO       ACCESS:      18275  HIT:      12613  MISS:       5662
L2C PREFETCH  ACCESS:    2097323  HIT:    2014599  MISS:      82724
L2C WRITEBACK ACCESS:      78958  HIT:      78482  MISS:        476
L2C PREFETCH  REQUESTED:    1315298  ISSUED:    1315138  USEFUL:       7209  USELESS:      75554
L2C AVERAGE MISS LATENCY: 118.501 cycles
LLC TOTAL     ACCESS:     429352  HIT:     284345  MISS:     145007
LLC LOAD      ACCESS:      82791  HIT:      32348  MISS:      50443
LLC RFO       ACCESS:       5662  HIT:       2546  MISS:       3116
LLC PREFETCH  ACCESS:     314565  HIT:     223582  MISS:      90983
LLC WRITEBACK ACCESS:      26334  HIT:      25869  MISS:        465
LLC PREFETCH  REQUESTED:          0  ISSUED:          0  USEFUL:      13736  USELESS:      77483
LLC AVERAGE MISS LATENCY: 160.491 cycles
Major fault: 0 Minor fault: 6365
CPU 0 L1D next line prefetcher final stats

DRAM Statistics
 CHANNEL 0
 RQ ROW_BUFFER_HIT:      33224  ROW_BUFFER_MISS:     111315
 DBUS_CONGESTED:      55745
 WQ ROW_BUFFER_HIT:       4362  ROW_BUFFER_MISS:      12977  FULL:          0

 AVG_CONGESTED_CYCLE: 4

CPU 0 Branch Prediction Accuracy: 98.7418% MPKI: 2.47758 Average ROB Occupancy at Mispredict: 79.2512

Branch types
NOT_BRANCH: 40154100 80.3082%
BRANCH_DIRECT_JUMP: 817094 1.63419%
BRANCH_INDIRECT: 303787 0.607574%
BRANCH_CONDITIONAL: 7492103 14.9842%
BRANCH_DIRECT_CALL: 471777 0.943554%
BRANCH_INDIRECT_CALL: 144546 0.289092%
BRANCH_RETURN: 616324 1.23265%
BRANCH_OTHER: 0 0%

