Initialize SIGNATURE TABLE
ST_SET: 1
ST_WAY: 256
ST_TAG_BIT: 16
ST_TAG_MASK: ffff

Initialize PATTERN TABLE
PT_SET: 512
PT_WAY: 4
SIG_DELTA_BIT: 7
C_SIG_BIT: 4
C_DELTA_BIT: 4

Initialize PREFETCH FILTER
FILTER_SET: 1024

*** ChampSim Multicore Out-of-Order Simulator ***

Warmup Instructions: 50000000
Simulation Instructions: 50000000
Number of CPUs: 1
LLC sets: 2048
LLC ways: 16
Off-chip DRAM Size: 4096 MB Channels: 1 Width: 64-bit Data Rate: 3200 MT/s

CPU 0 runs /home/ChampSim-master//dpc3_traces/spec_gcc_002.champsimtrace.xz
L1I D-JOLT instruction prefetcher has been constructed!
CPU 0 L1D next line prefetcher
Heartbeat CPU 0 instructions: 10000002 cycles: 3534326 heartbeat IPC: 2.82939 cumulative IPC: 2.82939 (Simulation time: 0 hr 2 min 15 sec) 
Heartbeat CPU 0 instructions: 20000000 cycles: 7122118 heartbeat IPC: 2.78723 cumulative IPC: 2.80815 (Simulation time: 0 hr 4 min 50 sec) 
Heartbeat CPU 0 instructions: 30000000 cycles: 10801382 heartbeat IPC: 2.71793 cumulative IPC: 2.77742 (Simulation time: 0 hr 7 min 18 sec) 
Heartbeat CPU 0 instructions: 40000000 cycles: 14366283 heartbeat IPC: 2.80513 cumulative IPC: 2.7843 (Simulation time: 0 hr 9 min 29 sec) 
Heartbeat CPU 0 instructions: 50000002 cycles: 17864313 heartbeat IPC: 2.85875 cumulative IPC: 2.79888 (Simulation time: 0 hr 11 min 32 sec) 

Warmup complete CPU 0 instructions: 50000002 cycles: 17864313 (Simulation time: 0 hr 11 min 32 sec) 

Heartbeat CPU 0 instructions: 60000001 cycles: 57629975 heartbeat IPC: 0.251473 cumulative IPC: 0.251473 (Simulation time: 0 hr 15 min 55 sec) 
Heartbeat CPU 0 instructions: 70000001 cycles: 89708049 heartbeat IPC: 0.311739 cumulative IPC: 0.278382 (Simulation time: 0 hr 19 min 40 sec) 
Heartbeat CPU 0 instructions: 80000002 cycles: 138969274 heartbeat IPC: 0.202999 cumulative IPC: 0.247719 (Simulation time: 0 hr 23 min 49 sec) 
Heartbeat CPU 0 instructions: 90000001 cycles: 183687381 heartbeat IPC: 0.223623 cumulative IPC: 0.241221 (Simulation time: 0 hr 25 min 12 sec) 
Heartbeat CPU 0 instructions: 100000000 cycles: 215256068 heartbeat IPC: 0.31677 cumulative IPC: 0.253303 (Simulation time: 0 hr 25 min 46 sec) 
Finished CPU 0 instructions: 50000002 cycles: 197392144 cumulative IPC: 0.253303 (Simulation time: 0 hr 25 min 46 sec) 

ChampSim completed all CPUs

Region of Interest Statistics

CPU 0 cumulative IPC: 0.253303 instructions: 50000002 cycles: 197392144
L1D TOTAL     ACCESS:   18183609  HIT:   12950111  MISS:    5233498
L1D LOAD      ACCESS:    6336844  HIT:    5276916  MISS:    1059928
L1D RFO       ACCESS:    7028123  HIT:    3427470  MISS:    3600653
L1D PREFETCH  ACCESS:    4818642  HIT:    4245725  MISS:     572917
L1D WRITEBACK ACCESS:          0  HIT:          0  MISS:          0
L1D PREFETCH  REQUESTED:    6357062  ISSUED:    6286399  USEFUL:     413252  USELESS:     159881
L1D AVERAGE MISS LATENCY: 334.274 cycles
L1I TOTAL     ACCESS:   15970050  HIT:   14896886  MISS:    1073164
L1I LOAD      ACCESS:   12107036  HIT:   12041025  MISS:      66011
L1I RFO       ACCESS:          0  HIT:          0  MISS:          0
L1I PREFETCH  ACCESS:    3863014  HIT:    2855861  MISS:    1007153
L1I WRITEBACK ACCESS:          0  HIT:          0  MISS:          0
L1I PREFETCH  REQUESTED:    4149812  ISSUED:    4065154  USEFUL:     639408  USELESS:     367793
L1I AVERAGE MISS LATENCY: 68.2861 cycles
L2C TOTAL     ACCESS:   10486652  HIT:    5161923  MISS:    5324729
L2C LOAD      ACCESS:     292303  HIT:     126648  MISS:     165655
L2C RFO       ACCESS:    3599070  HIT:      13085  MISS:    3585985
L2C PREFETCH  ACCESS:    2869788  HIT:    1296824  MISS:    1572964
L2C WRITEBACK ACCESS:    3725491  HIT:    3725366  MISS:        125
L2C PREFETCH  REQUESTED:    3015534  ISSUED:    3015435  USEFUL:      31507  USELESS:    1541592
L2C AVERAGE MISS LATENCY: 345.995 cycles
LLC TOTAL     ACCESS:    9978061  HIT:    6093812  MISS:    3884249
LLC LOAD      ACCESS:     165483  HIT:      97908  MISS:      67575
LLC RFO       ACCESS:    3585984  HIT:     589904  MISS:    2996080
LLC PREFETCH  ACCESS:    2561468  HIT:    1740874  MISS:     820594
LLC WRITEBACK ACCESS:    3665126  HIT:    3665126  MISS:          0
LLC PREFETCH  REQUESTED:          0  ISSUED:          0  USEFUL:     147580  USELESS:     668855
LLC AVERAGE MISS LATENCY: 457.66 cycles
Major fault: 0 Minor fault: 4154
CPU 0 L1D next line prefetcher final stats

DRAM Statistics
 CHANNEL 0
 RQ ROW_BUFFER_HIT:    1032485  ROW_BUFFER_MISS:    2849545
 DBUS_CONGESTED:    5550484
 WQ ROW_BUFFER_HIT:     940824  ROW_BUFFER_MISS:    2232593  FULL:          0

 AVG_CONGESTED_CYCLE: 6

CPU 0 Branch Prediction Accuracy: 99.5987% MPKI: 0.82446 Average ROB Occupancy at Mispredict: 132.844

Branch types
NOT_BRANCH: 39726803 79.4536%
BRANCH_DIRECT_JUMP: 391438 0.782876%
BRANCH_INDIRECT: 62076 0.124152%
BRANCH_CONDITIONAL: 8421539 16.8431%
BRANCH_DIRECT_CALL: 672962 1.34592%
BRANCH_INDIRECT_CALL: 26115 0.05223%
BRANCH_RETURN: 699082 1.39816%
BRANCH_OTHER: 0 0%

