Initialize SIGNATURE TABLE
ST_SET: 1
ST_WAY: 256
ST_TAG_BIT: 16
ST_TAG_MASK: ffff

Initialize PATTERN TABLE
PT_SET: 512
PT_WAY: 4
SIG_DELTA_BIT: 7
C_SIG_BIT: 4
C_DELTA_BIT: 4

Initialize PREFETCH FILTER
FILTER_SET: 1024

*** ChampSim Multicore Out-of-Order Simulator ***

Warmup Instructions: 50000000
Simulation Instructions: 50000000
Number of CPUs: 1
LLC sets: 2048
LLC ways: 16
Off-chip DRAM Size: 4096 MB Channels: 1 Width: 64-bit Data Rate: 3200 MT/s

CPU 0 runs /home/ChampSim-master//dpc3_traces/spec_gobmk_002.champsimtrace.xz
L1I D-JOLT instruction prefetcher has been constructed!
CPU 0 L1D next line prefetcher
Heartbeat CPU 0 instructions: 10000001 cycles: 3287466 heartbeat IPC: 3.04186 cumulative IPC: 3.04186 (Simulation time: 0 hr 2 min 20 sec) 
Heartbeat CPU 0 instructions: 20000000 cycles: 6619066 heartbeat IPC: 3.00156 cumulative IPC: 3.02157 (Simulation time: 0 hr 4 min 39 sec) 
Heartbeat CPU 0 instructions: 30000000 cycles: 9956968 heartbeat IPC: 2.99589 cumulative IPC: 3.01297 (Simulation time: 0 hr 7 min 2 sec) 
Heartbeat CPU 0 instructions: 40000000 cycles: 13266387 heartbeat IPC: 3.02168 cumulative IPC: 3.01514 (Simulation time: 0 hr 9 min 24 sec) 
Heartbeat CPU 0 instructions: 50000003 cycles: 16529917 heartbeat IPC: 3.06417 cumulative IPC: 3.02482 (Simulation time: 0 hr 11 min 44 sec) 

Warmup complete CPU 0 instructions: 50000003 cycles: 16529917 (Simulation time: 0 hr 11 min 44 sec) 

Heartbeat CPU 0 instructions: 60000003 cycles: 23911283 heartbeat IPC: 1.35476 cumulative IPC: 1.35476 (Simulation time: 0 hr 13 min 38 sec) 
Heartbeat CPU 0 instructions: 70000000 cycles: 31235433 heartbeat IPC: 1.36535 cumulative IPC: 1.36003 (Simulation time: 0 hr 15 min 26 sec) 
Heartbeat CPU 0 instructions: 80000002 cycles: 38430934 heartbeat IPC: 1.38976 cumulative IPC: 1.3698 (Simulation time: 0 hr 17 min 14 sec) 
Heartbeat CPU 0 instructions: 90000002 cycles: 45949709 heartbeat IPC: 1.33 cumulative IPC: 1.35963 (Simulation time: 0 hr 18 min 52 sec) 
Heartbeat CPU 0 instructions: 100000003 cycles: 53697567 heartbeat IPC: 1.29068 cumulative IPC: 1.34526 (Simulation time: 0 hr 20 min 32 sec) 
Finished CPU 0 instructions: 50000000 cycles: 37167650 cumulative IPC: 1.34526 (Simulation time: 0 hr 20 min 32 sec) 

ChampSim completed all CPUs

Region of Interest Statistics

CPU 0 cumulative IPC: 1.34526 instructions: 50000000 cycles: 37167650
L1D TOTAL     ACCESS:   17623980  HIT:   17500857  MISS:     123123
L1D LOAD      ACCESS:    6657835  HIT:    6623559  MISS:      34276
L1D RFO       ACCESS:    4387404  HIT:    4344719  MISS:      42685
L1D PREFETCH  ACCESS:    6578741  HIT:    6532579  MISS:      46162
L1D WRITEBACK ACCESS:          0  HIT:          0  MISS:          0
L1D PREFETCH  REQUESTED:    6660272  ISSUED:    6592915  USEFUL:      17103  USELESS:      29243
L1D AVERAGE MISS LATENCY: 50.5656 cycles
L1I TOTAL     ACCESS:   17420130  HIT:   14721734  MISS:    2698396
L1I LOAD      ACCESS:    8903949  HIT:    8841733  MISS:      62216
L1I RFO       ACCESS:          0  HIT:          0  MISS:          0
L1I PREFETCH  ACCESS:    8516181  HIT:    5880001  MISS:    2636180
L1I WRITEBACK ACCESS:          0  HIT:          0  MISS:          0
L1I PREFETCH  REQUESTED:    9202310  ISSUED:    8614169  USEFUL:    1254401  USELESS:    1381711
L1I AVERAGE MISS LATENCY: 14.5983 cycles
L2C TOTAL     ACCESS:    4148941  HIT:    4111322  MISS:      37619
L2C LOAD      ACCESS:      90214  HIT:      76561  MISS:      13653
L2C RFO       ACCESS:      42548  HIT:      39714  MISS:       2834
L2C PREFETCH  ACCESS:    3941973  HIT:    3921002  MISS:      20971
L2C WRITEBACK ACCESS:      74206  HIT:      74045  MISS:        161
L2C PREFETCH  REQUESTED:    2265059  ISSUED:    2265049  USEFUL:       2316  USELESS:      19066
L2C AVERAGE MISS LATENCY: 124.671 cycles
LLC TOTAL     ACCESS:     114817  HIT:      81570  MISS:      33247
LLC LOAD      ACCESS:      13653  HIT:       5076  MISS:       8577
LLC RFO       ACCESS:       2833  HIT:       1191  MISS:       1642
LLC PREFETCH  ACCESS:      80343  HIT:      57829  MISS:      22514
LLC WRITEBACK ACCESS:      17988  HIT:      17474  MISS:        514
LLC PREFETCH  REQUESTED:          0  ISSUED:          0  USEFUL:       2114  USELESS:      20099
LLC AVERAGE MISS LATENCY: 182.376 cycles
Major fault: 0 Minor fault: 2780
CPU 0 L1D next line prefetcher final stats

DRAM Statistics
 CHANNEL 0
 RQ ROW_BUFFER_HIT:       2600  ROW_BUFFER_MISS:      30133
 DBUS_CONGESTED:      15734
 WQ ROW_BUFFER_HIT:        755  ROW_BUFFER_MISS:      13309  FULL:          0

 AVG_CONGESTED_CYCLE: 4

CPU 0 Branch Prediction Accuracy: 93.9974% MPKI: 10.2447 Average ROB Occupancy at Mispredict: 40.2208

Branch types
NOT_BRANCH: 41466055 82.9321%
BRANCH_DIRECT_JUMP: 464313 0.928626%
BRANCH_INDIRECT: 32 6.4e-05%
BRANCH_CONDITIONAL: 7069453 14.1389%
BRANCH_DIRECT_CALL: 499587 0.999174%
BRANCH_INDIRECT_CALL: 342 0.000684%
BRANCH_RETURN: 499906 0.999812%
BRANCH_OTHER: 0 0%

