Initialize SIGNATURE TABLE
ST_SET: 1
ST_WAY: 256
ST_TAG_BIT: 16
ST_TAG_MASK: ffff

Initialize PATTERN TABLE
PT_SET: 512
PT_WAY: 4
SIG_DELTA_BIT: 7
C_SIG_BIT: 4
C_DELTA_BIT: 4

Initialize PREFETCH FILTER
FILTER_SET: 1024

*** ChampSim Multicore Out-of-Order Simulator ***

Warmup Instructions: 50000000
Simulation Instructions: 50000000
Number of CPUs: 1
LLC sets: 2048
LLC ways: 16
Off-chip DRAM Size: 4096 MB Channels: 1 Width: 64-bit Data Rate: 3200 MT/s

CPU 0 runs /home/ChampSim-master//dpc3_traces/spec_gcc_002.champsimtrace.xz
CPU 0 L1D next line prefetcher
Heartbeat CPU 0 instructions: 10000002 cycles: 3579716 heartbeat IPC: 2.79352 cumulative IPC: 2.79352 (Simulation time: 0 hr 4 min 22 sec) 
Heartbeat CPU 0 instructions: 20000000 cycles: 7167613 heartbeat IPC: 2.78715 cumulative IPC: 2.79033 (Simulation time: 0 hr 8 min 40 sec) 
Heartbeat CPU 0 instructions: 30000000 cycles: 10881563 heartbeat IPC: 2.69255 cumulative IPC: 2.75696 (Simulation time: 0 hr 13 min 42 sec) 
Heartbeat CPU 0 instructions: 40000000 cycles: 14455622 heartbeat IPC: 2.79794 cumulative IPC: 2.76709 (Simulation time: 0 hr 18 min 15 sec) 
Heartbeat CPU 0 instructions: 50000002 cycles: 17946020 heartbeat IPC: 2.865 cumulative IPC: 2.78613 (Simulation time: 0 hr 22 min 21 sec) 

Warmup complete CPU 0 instructions: 50000002 cycles: 17946020 (Simulation time: 0 hr 22 min 21 sec) 

Heartbeat CPU 0 instructions: 60000001 cycles: 57525557 heartbeat IPC: 0.252656 cumulative IPC: 0.252656 (Simulation time: 0 hr 30 min 48 sec) 
Heartbeat CPU 0 instructions: 70000001 cycles: 89594011 heartbeat IPC: 0.311833 cumulative IPC: 0.279142 (Simulation time: 0 hr 38 min 20 sec) 
Heartbeat CPU 0 instructions: 80000002 cycles: 138737814 heartbeat IPC: 0.203484 cumulative IPC: 0.248361 (Simulation time: 0 hr 47 min 10 sec) 
Heartbeat CPU 0 instructions: 90000001 cycles: 183301799 heartbeat IPC: 0.224396 cumulative IPC: 0.241903 (Simulation time: 0 hr 54 min 18 sec) 
Heartbeat CPU 0 instructions: 100000000 cycles: 214537477 heartbeat IPC: 0.320147 cumulative IPC: 0.254335 (Simulation time: 0 hr 55 min 43 sec) 
Finished CPU 0 instructions: 50000002 cycles: 196591465 cumulative IPC: 0.254335 (Simulation time: 0 hr 55 min 43 sec) 

ChampSim completed all CPUs

Region of Interest Statistics

CPU 0 cumulative IPC: 0.254335 instructions: 50000002 cycles: 196591465
L1D TOTAL     ACCESS:   18231394  HIT:   12997823  MISS:    5233571
L1D LOAD      ACCESS:    6356300  HIT:    5298752  MISS:    1057548
L1D RFO       ACCESS:    7032396  HIT:    3431762  MISS:    3600634
L1D PREFETCH  ACCESS:    4842698  HIT:    4267309  MISS:     575389
L1D WRITEBACK ACCESS:          0  HIT:          0  MISS:          0
L1D PREFETCH  REQUESTED:    6376407  ISSUED:    6306987  USEFUL:     415646  USELESS:     159959
L1D AVERAGE MISS LATENCY: 332.902 cycles
L1I TOTAL     ACCESS:   19779327  HIT:   17879451  MISS:    1899876
L1I LOAD      ACCESS:   12131083  HIT:   12032214  MISS:      98869
L1I RFO       ACCESS:          0  HIT:          0  MISS:          0
L1I PREFETCH  ACCESS:    7648244  HIT:    5847237  MISS:    1801007
L1I WRITEBACK ACCESS:          0  HIT:          0  MISS:          0
L1I PREFETCH  REQUESTED:    7793019  ISSUED:    7721418  USEFUL:     734424  USELESS:    1066568
L1I AVERAGE MISS LATENCY: 44.0177 cycles
L2C TOTAL     ACCESS:   11394953  HIT:    6008540  MISS:    5386413
L2C LOAD      ACCESS:     305857  HIT:     136031  MISS:     169826
L2C RFO       ACCESS:    3599047  HIT:      12502  MISS:    3586545
L2C PREFETCH  ACCESS:    3764558  HIT:    2134777  MISS:    1629781
L2C WRITEBACK ACCESS:    3725491  HIT:    3725230  MISS:        261
L2C PREFETCH  REQUESTED:    2977294  ISSUED:    2977194  USEFUL:      38290  USELESS:    1591861
L2C AVERAGE MISS LATENCY: 340.178 cycles
LLC TOTAL     ACCESS:   10020932  HIT:    6180612  MISS:    3840320
LLC LOAD      ACCESS:     169663  HIT:     100258  MISS:      69405
LLC RFO       ACCESS:    3586546  HIT:     613494  MISS:    2973052
LLC PREFETCH  ACCESS:    2598281  HIT:    1800418  MISS:     797863
LLC WRITEBACK ACCESS:    3666442  HIT:    3666442  MISS:          0
LLC PREFETCH  REQUESTED:          0  ISSUED:          0  USEFUL:     142754  USELESS:     650516
LLC AVERAGE MISS LATENCY: 457.661 cycles
Major fault: 0 Minor fault: 4163
CPU 0 L1D next line prefetcher final stats

DRAM Statistics
 CHANNEL 0
 RQ ROW_BUFFER_HIT:    1004104  ROW_BUFFER_MISS:    2833679
 DBUS_CONGESTED:    5474072
 WQ ROW_BUFFER_HIT:     928903  ROW_BUFFER_MISS:    2217043  FULL:          0

 AVG_CONGESTED_CYCLE: 6

CPU 0 Branch Prediction Accuracy: 99.5987% MPKI: 0.82446 Average ROB Occupancy at Mispredict: 129.386

Branch types
NOT_BRANCH: 39726803 79.4536%
BRANCH_DIRECT_JUMP: 391438 0.782876%
BRANCH_INDIRECT: 62076 0.124152%
BRANCH_CONDITIONAL: 8421539 16.8431%
BRANCH_DIRECT_CALL: 672962 1.34592%
BRANCH_INDIRECT_CALL: 26115 0.05223%
BRANCH_RETURN: 699082 1.39816%
BRANCH_OTHER: 0 0%

