Initialize SIGNATURE TABLE
ST_SET: 1
ST_WAY: 256
ST_TAG_BIT: 16
ST_TAG_MASK: ffff

Initialize PATTERN TABLE
PT_SET: 512
PT_WAY: 4
SIG_DELTA_BIT: 7
C_SIG_BIT: 4
C_DELTA_BIT: 4

Initialize PREFETCH FILTER
FILTER_SET: 1024

*** ChampSim Multicore Out-of-Order Simulator ***

Warmup Instructions: 50000000
Simulation Instructions: 50000000
Number of CPUs: 1
LLC sets: 2048
LLC ways: 16
Off-chip DRAM Size: 4096 MB Channels: 1 Width: 64-bit Data Rate: 3200 MT/s

CPU 0 runs /home/ChampSim-master//dpc3_traces/spec_gobmk_002.champsimtrace.xz
L1I D-JOLT instruction prefetcher has been constructed!
CPU 0 L1D next line prefetcher
Heartbeat CPU 0 instructions: 10000001 cycles: 3287441 heartbeat IPC: 3.04188 cumulative IPC: 3.04188 (Simulation time: 0 hr 2 min 29 sec) 
Heartbeat CPU 0 instructions: 20000000 cycles: 6619001 heartbeat IPC: 3.0016 cumulative IPC: 3.0216 (Simulation time: 0 hr 5 min 6 sec) 
Heartbeat CPU 0 instructions: 30000000 cycles: 9956916 heartbeat IPC: 2.99588 cumulative IPC: 3.01298 (Simulation time: 0 hr 7 min 42 sec) 
Heartbeat CPU 0 instructions: 40000000 cycles: 13266391 heartbeat IPC: 3.02163 cumulative IPC: 3.01514 (Simulation time: 0 hr 10 min 23 sec) 
Heartbeat CPU 0 instructions: 50000003 cycles: 16529930 heartbeat IPC: 3.06416 cumulative IPC: 3.02482 (Simulation time: 0 hr 13 min 3 sec) 

Warmup complete CPU 0 instructions: 50000003 cycles: 16529930 (Simulation time: 0 hr 13 min 3 sec) 

Heartbeat CPU 0 instructions: 60000003 cycles: 23943745 heartbeat IPC: 1.34883 cumulative IPC: 1.34883 (Simulation time: 0 hr 15 min 12 sec) 
Heartbeat CPU 0 instructions: 70000001 cycles: 31295462 heartbeat IPC: 1.36023 cumulative IPC: 1.35451 (Simulation time: 0 hr 17 min 18 sec) 
Heartbeat CPU 0 instructions: 80000002 cycles: 38508818 heartbeat IPC: 1.38632 cumulative IPC: 1.36495 (Simulation time: 0 hr 19 min 25 sec) 
Heartbeat CPU 0 instructions: 90000001 cycles: 46043462 heartbeat IPC: 1.3272 cumulative IPC: 1.35531 (Simulation time: 0 hr 21 min 21 sec) 
Heartbeat CPU 0 instructions: 100000003 cycles: 53820703 heartbeat IPC: 1.2858 cumulative IPC: 1.34081 (Simulation time: 0 hr 23 min 17 sec) 
Finished CPU 0 instructions: 50000000 cycles: 37290773 cumulative IPC: 1.34081 (Simulation time: 0 hr 23 min 17 sec) 

ChampSim completed all CPUs

Region of Interest Statistics

CPU 0 cumulative IPC: 1.34081 instructions: 50000000 cycles: 37290773
L1D TOTAL     ACCESS:   17627726  HIT:   17504601  MISS:     123125
L1D LOAD      ACCESS:    6659405  HIT:    6625124  MISS:      34281
L1D RFO       ACCESS:    4388069  HIT:    4345389  MISS:      42680
L1D PREFETCH  ACCESS:    6580252  HIT:    6534088  MISS:      46164
L1D WRITEBACK ACCESS:          0  HIT:          0  MISS:          0
L1D PREFETCH  REQUESTED:    6661795  ISSUED:    6594435  USEFUL:      17101  USELESS:      29244
L1D AVERAGE MISS LATENCY: 50.4749 cycles
L1I TOTAL     ACCESS:   16092441  HIT:   13684579  MISS:    2407862
L1I LOAD      ACCESS:    8894642  HIT:    8815405  MISS:      79237
L1I RFO       ACCESS:          0  HIT:          0  MISS:          0
L1I PREFETCH  ACCESS:    7197799  HIT:    4869174  MISS:    2328625
L1I WRITEBACK ACCESS:          0  HIT:          0  MISS:          0
L1I PREFETCH  REQUESTED:    7647495  ISSUED:    7261951  USEFUL:    1141315  USELESS:    1187254
L1I AVERAGE MISS LATENCY: 14.5925 cycles
L2C TOTAL     ACCESS:    3683827  HIT:    3646248  MISS:      37579
L2C LOAD      ACCESS:     110258  HIT:      96436  MISS:      13822
L2C RFO       ACCESS:      42534  HIT:      39753  MISS:       2781
L2C PREFETCH  ACCESS:    3456833  HIT:    3436024  MISS:      20809
L2C WRITEBACK ACCESS:      74202  HIT:      74035  MISS:        167
L2C PREFETCH  REQUESTED:    1725935  ISSUED:    1725927  USEFUL:       2373  USELESS:      18889
L2C AVERAGE MISS LATENCY: 124.663 cycles
LLC TOTAL     ACCESS:     106189  HIT:      74704  MISS:      31485
LLC LOAD      ACCESS:      13822  HIT:       5166  MISS:       8656
LLC RFO       ACCESS:       2781  HIT:       1157  MISS:       1624
LLC PREFETCH  ACCESS:      71677  HIT:      50959  MISS:      20718
LLC WRITEBACK ACCESS:      17909  HIT:      17422  MISS:        487
LLC PREFETCH  REQUESTED:          0  ISSUED:          0  USEFUL:       2021  USELESS:      18489
LLC AVERAGE MISS LATENCY: 181.165 cycles
Major fault: 0 Minor fault: 2780
CPU 0 L1D next line prefetcher final stats

DRAM Statistics
 CHANNEL 0
 RQ ROW_BUFFER_HIT:       2508  ROW_BUFFER_MISS:      28490
 DBUS_CONGESTED:      13444
 WQ ROW_BUFFER_HIT:        768  ROW_BUFFER_MISS:      12706  FULL:          0

 AVG_CONGESTED_CYCLE: 4

CPU 0 Branch Prediction Accuracy: 93.9974% MPKI: 10.2447 Average ROB Occupancy at Mispredict: 39.9857

Branch types
NOT_BRANCH: 41466058 82.9321%
BRANCH_DIRECT_JUMP: 464313 0.928626%
BRANCH_INDIRECT: 32 6.4e-05%
BRANCH_CONDITIONAL: 7069452 14.1389%
BRANCH_DIRECT_CALL: 499587 0.999174%
BRANCH_INDIRECT_CALL: 342 0.000684%
BRANCH_RETURN: 499906 0.999812%
BRANCH_OTHER: 0 0%

