Initialize SIGNATURE TABLE
ST_SET: 1
ST_WAY: 256
ST_TAG_BIT: 16
ST_TAG_MASK: ffff

Initialize PATTERN TABLE
PT_SET: 512
PT_WAY: 4
SIG_DELTA_BIT: 7
C_SIG_BIT: 4
C_DELTA_BIT: 4

Initialize PREFETCH FILTER
FILTER_SET: 1024

*** ChampSim Multicore Out-of-Order Simulator ***

Warmup Instructions: 50000000
Simulation Instructions: 50000000
Number of CPUs: 1
LLC sets: 2048
LLC ways: 16
Off-chip DRAM Size: 4096 MB Channels: 1 Width: 64-bit Data Rate: 3200 MT/s

CPU 0 runs /home/ChampSim-master//dpc3_traces/spec_gcc_003.champsimtrace.xz
L1I D-JOLT instruction prefetcher has been constructed!
CPU 0 L1D next line prefetcher
Heartbeat CPU 0 instructions: 10000001 cycles: 3487157 heartbeat IPC: 2.86767 cumulative IPC: 2.86767 (Simulation time: 0 hr 2 min 40 sec) 
Heartbeat CPU 0 instructions: 20000000 cycles: 6951592 heartbeat IPC: 2.88647 cumulative IPC: 2.87704 (Simulation time: 0 hr 5 min 19 sec) 
Heartbeat CPU 0 instructions: 30000002 cycles: 10394961 heartbeat IPC: 2.90413 cumulative IPC: 2.88601 (Simulation time: 0 hr 7 min 57 sec) 
Heartbeat CPU 0 instructions: 40000000 cycles: 13860470 heartbeat IPC: 2.88558 cumulative IPC: 2.88591 (Simulation time: 0 hr 10 min 35 sec) 
Heartbeat CPU 0 instructions: 50000001 cycles: 17172690 heartbeat IPC: 3.01912 cumulative IPC: 2.9116 (Simulation time: 0 hr 13 min 7 sec) 

Warmup complete CPU 0 instructions: 50000001 cycles: 17172690 (Simulation time: 0 hr 13 min 7 sec) 

Heartbeat CPU 0 instructions: 60000000 cycles: 56988703 heartbeat IPC: 0.251155 cumulative IPC: 0.251155 (Simulation time: 0 hr 17 min 43 sec) 
Heartbeat CPU 0 instructions: 70000000 cycles: 99770520 heartbeat IPC: 0.233744 cumulative IPC: 0.242137 (Simulation time: 0 hr 22 min 19 sec) 
Heartbeat CPU 0 instructions: 80000003 cycles: 143569814 heartbeat IPC: 0.228314 cumulative IPC: 0.237347 (Simulation time: 0 hr 26 min 21 sec) 
Heartbeat CPU 0 instructions: 90000002 cycles: 180609314 heartbeat IPC: 0.269982 cumulative IPC: 0.244743 (Simulation time: 0 hr 27 min 21 sec) 
Heartbeat CPU 0 instructions: 100000001 cycles: 227148831 heartbeat IPC: 0.214871 cumulative IPC: 0.238122 (Simulation time: 0 hr 28 min 2 sec) 
Finished CPU 0 instructions: 50000000 cycles: 209976141 cumulative IPC: 0.238122 (Simulation time: 0 hr 28 min 2 sec) 

ChampSim completed all CPUs

Region of Interest Statistics

CPU 0 cumulative IPC: 0.238122 instructions: 50000000 cycles: 209976141
L1D TOTAL     ACCESS:   16812544  HIT:   11088279  MISS:    5724265
L1D LOAD      ACCESS:    4549364  HIT:    4166333  MISS:     383031
L1D RFO       ACCESS:    8204017  HIT:    3152376  MISS:    5051641
L1D PREFETCH  ACCESS:    4059163  HIT:    3769570  MISS:     289593
L1D WRITEBACK ACCESS:          0  HIT:          0  MISS:          0
L1D PREFETCH  REQUESTED:    4566686  ISSUED:    4506629  USEFUL:     152185  USELESS:     137588
L1D AVERAGE MISS LATENCY: 501.522 cycles
L1I TOTAL     ACCESS:   15843451  HIT:   14486853  MISS:    1356598
L1I LOAD      ACCESS:   11288763  HIT:   11217655  MISS:      71108
L1I RFO       ACCESS:          0  HIT:          0  MISS:          0
L1I PREFETCH  ACCESS:    4554688  HIT:    3269198  MISS:    1285490
L1I WRITEBACK ACCESS:          0  HIT:          0  MISS:          0
L1I PREFETCH  REQUESTED:    5113678  ISSUED:    4889937  USEFUL:     790815  USELESS:     494660
L1I AVERAGE MISS LATENCY: 61.9721 cycles
L2C TOTAL     ACCESS:   12648058  HIT:    6548664  MISS:    6099394
L2C LOAD      ACCESS:     234858  HIT:      63681  MISS:     171177
L2C RFO       ACCESS:    5049841  HIT:       6438  MISS:    5043403
L2C PREFETCH  ACCESS:    2205488  HIT:    1321339  MISS:     884149
L2C WRITEBACK ACCESS:    5157871  HIT:    5157206  MISS:        665
L2C PREFETCH  REQUESTED:    2004827  ISSUED:    2004797  USEFUL:      25101  USELESS:     856213
L2C AVERAGE MISS LATENCY: 470.837 cycles
LLC TOTAL     ACCESS:   12008857  HIT:    7250712  MISS:    4758145
LLC LOAD      ACCESS:     171127  HIT:     127905  MISS:      43222
LLC RFO       ACCESS:    5043403  HIT:     631347  MISS:    4412056
LLC PREFETCH  ACCESS:    1660529  HIT:    1357662  MISS:     302867
LLC WRITEBACK ACCESS:    5133798  HIT:    5133798  MISS:          0
LLC PREFETCH  REQUESTED:          0  ISSUED:          0  USEFUL:      11863  USELESS:     290948
LLC AVERAGE MISS LATENCY: 574.839 cycles
Major fault: 0 Minor fault: 2819
CPU 0 L1D next line prefetcher final stats

DRAM Statistics
 CHANNEL 0
 RQ ROW_BUFFER_HIT:    1442751  ROW_BUFFER_MISS:    3315118
 DBUS_CONGESTED:    8217877
 WQ ROW_BUFFER_HIT:    1178747  ROW_BUFFER_MISS:    3262918  FULL:          0

 AVG_CONGESTED_CYCLE: 6

CPU 0 Branch Prediction Accuracy: 99.665% MPKI: 0.78342 Average ROB Occupancy at Mispredict: 123.192

Branch types
NOT_BRANCH: 38305856 76.6117%
BRANCH_DIRECT_JUMP: 384281 0.768562%
BRANCH_INDIRECT: 71949 0.143898%
BRANCH_CONDITIONAL: 9879825 19.7597%
BRANCH_DIRECT_CALL: 650586 1.30117%
BRANCH_INDIRECT_CALL: 28456 0.056912%
BRANCH_RETURN: 679046 1.35809%
BRANCH_OTHER: 0 0%

